279
Properties=species:S:1:pos:R:3:forces:R:3 LayerForceGeomOptConstraint=T energy=-1033.6991318170187 free_energy=-1033.6991318170187 stress="1.5528562636105187e-09 8.818823207380173e-09 3.993352623084157e-09 8.818823207380173e-09 2.4556538685842837e-08 -4.675896277795842e-09 3.993352623084157e-09 -4.675896277795842e-09 2.4357984108552983e-08" pbc="F F F"
Li       5.19799300      12.44094700      26.16810800      -1.28249634       0.80857008      -0.08203317
Li       9.32617649       9.89261966       8.53641936      -0.01046705       0.00205662      -0.01007323
Li       3.07247582       1.60571963       9.69151880      -0.01324799       0.00306110      -0.01964207
Li       3.64583500       4.93216400      25.93193800       0.66706279       0.13048677       0.33468496
Li       0.86359305       5.77636247       7.25344667      -0.02318206      -0.03246110       0.00400289
Li       5.60454374       2.47275205       7.61888325       0.00873717       0.00109051      -0.01347688
Li       8.89778137       0.72927142       9.28714367       0.00619775       0.00436574      -0.01026668
Li       0.93889766       3.17678591       8.99658756       0.00526815      -0.01795971      -0.01595294
Li      -2.19309175       2.14415355       7.31585662       0.01948174       0.01620602       0.00843701
Li       2.76479307      -0.05262999       6.68163407       0.01988416       0.02369984       0.01359091
Li       3.42350510      12.85880766      11.87808665      -0.02249393      -0.00280600      -0.01485105
Li      -1.01780767       5.97429088       5.43702818       0.01399451      -0.02269487       0.01163877
Li       3.70691728       2.92102809       5.21270679      -0.00253287       0.03305414      -0.00921329
Li       0.11647177      -0.17992491       8.99952201      -0.01561735      -0.01113672      -0.00777652
Li      -5.50187552      11.65151004       5.76844357       0.02196878      -0.00873475       0.00078406
Li       0.79067316       2.69138177       6.19518466      -0.00759668      -0.02034318       0.01386795
Li      -2.07237900      12.44359100      26.16810800      -1.20148403       0.72748162      -0.18875929
Li      -0.43688796      11.74480399       9.55527663       0.04288236      -0.00135343       0.01029250
Li       6.18576927       1.52346451      10.33408617       0.01885001      -0.00575516       0.01132908
Li      10.91380800       4.93291900      25.93141300       1.49865113      -0.70217641      -0.30742820
Li       7.97580667       3.51356463       9.61788461       0.01593171      -0.02326017       0.00895708
Li      -1.50005194       1.49924134      10.40746363      -0.01088792       0.01064770       0.00425055
Li      -3.44924337      13.09595942       6.60539748       0.01653796      -0.02162732       0.03889333
Li       9.47500709       4.34829199       6.88194989       0.00304084      -0.00602644       0.00697837
Li       7.14115924       2.84887810       5.28192274      -0.00188347      -0.00153703       0.01146236
Li      12.63182616      -0.52899661       8.70161263      -0.00515177       0.01270157       0.02913508
Li      -6.91615054      13.05171391       9.47052054       0.01278164       0.00861189      -0.00473140
Li       4.78149765       7.70870725       8.91434095       0.01608766       0.00512160       0.00306682
Li      10.67618924       2.29020123       7.92800127      -0.01363799       0.01834479      -0.00945643
Li      10.16528153       2.68695778      10.86814344      -0.00467781      -0.01819379      -0.00428305
Li       3.25807204      12.23838341       9.26444570       0.00683177       0.01560618       0.02074832
Li      10.88176324       6.72045139       6.95907653       0.00558604      -0.02043296      -0.00663895
Li       8.83161600       6.14506100      26.16994700      -1.07848104       0.62961745       0.10128888
Li       8.63860595       7.05214408       8.95773251      -0.00178457       0.01223767      -0.00686713
Li      -1.19925619       9.02177729      11.07501507      -0.00754223      -0.02291546       0.00393716
Li       0.01054000      11.22918300      25.93036200       0.68738505      -0.41973557       0.59466703
Li      -2.78827613      12.21400345      10.95213340       0.00225122      -0.00170286       0.01025985
Li       1.71021371       8.27167446       7.67713289      -0.00014900      -0.02661347      -0.02429955
Li       3.28762649       6.49398202       5.93162513       0.01638057      -0.02047642      -0.00336279
Li      -0.94696217       8.43830244       6.52204310      -0.00247212       0.00260737       0.02050682
Li      -1.39178095      11.51296054       4.41481034       0.02302465      -0.00807946       0.03166029
Li       1.29807929       9.50399713       4.52740736       0.00440575      -0.00738236       0.03184724
Li       3.57681956       5.37574371      10.63158572      -0.00086502       0.00383000       0.01791910
Li      -2.06236199      10.93237482       7.62198281       0.01173239       0.00837358      -0.02334579
Li       1.40777889      10.25349626      10.28242185      -0.00222145       0.02465122       0.01717157
Li       0.21281719       7.14190090      10.01339033       0.00704509       0.00659506       0.01851337
Li      -2.53478718       7.93171998       8.83250623       0.00209011       0.00798148      -0.01211058
Li       2.88094244      12.54592636       5.40215904       0.00856868      -0.05683631      -0.00592180
Li       1.56386100       6.14468300      26.16837100      -0.55856493       0.90805053      -0.19960903
Li       3.87230689       4.41327557       7.79399050       0.00046434       0.00377020      -0.01536238
Li       2.67091021       8.04310827      10.26374075      -0.00237678       0.01989758      -0.01554117
Li       7.28018500      11.22779800      25.93193800       1.56077592      -0.71884379      -0.23888138
Li       4.40935611      10.07131307      11.01657589      -0.02458297      -0.01251330       0.01168963
Li      -4.58811289       9.11606206       6.91478908      -0.00297687      -0.01969560       0.02643572
Li      -3.27797687       8.66694856       4.56720361       0.01607288      -0.01893659       0.01063285
Li       5.43931119      10.69292654       8.46280570       0.01000050      -0.02247790      -0.00674447
Li       1.19582072      10.76949691       7.46794620       0.02937622      -0.01659578       0.01188552
Li       6.83233614       4.94350628       7.39145959      -0.00675397       0.00288694       0.00034863
Li      -1.88573737       4.67799224       9.47088331      -0.02337409       0.02142261       0.01546073
Li       0.40913011       9.25652266      13.97526206      -0.01132831      -0.00419099      -0.00041577
Li       7.33250463       8.38442560       6.63006716      -0.00796642       0.00590971       0.01175348
Li       6.82556148       7.89707677      11.08581500       0.00561786      -0.01471881       0.01043596
Li       6.92682224       5.98699887       4.76574401      -0.00651536      -0.01399154      -0.00215376
Li       7.50108114      10.85719462      10.31497914       0.02548265      -0.00565635       0.00388167
Li       1.98515500       2.54502000      21.69007300      -0.19628528      -0.71864468       0.10422185
Li      -1.11254813       3.55337413      16.66747803      -0.01855605       0.00954364      -0.00907966
Li      -0.57413464      14.15349265      10.43456641      -0.00119018       0.00380119      -0.00655709
Li      -1.98515500       4.44934600      24.38304200      -0.38927252      -0.27090527      -0.31499372
Li       7.51248069       0.04881367      19.46790002      -0.06369957      -0.05188223      -0.02078199
Li       1.78904204      -0.09078160      12.38299318      -0.01501806       0.00476050       0.00222047
Li       3.63435000       1.59285600      24.38304200      -0.10364730      -0.87361609      -0.07824584
Li       0.74846789       1.09265723      19.03881453      -0.00002657       0.00229484       0.01191573
Li       1.00448510       4.76287070      15.05819837      -0.02299425       0.00230196       0.01557485
Li       5.25515139       0.81171434      17.11553131       0.00035280       0.02332574      -0.05322955
Li       3.63435000       5.40151000      21.69007300       0.03848558       0.01314178      -0.06907395
Li       1.87547052       2.69662076      12.35663795       0.00136640       0.00472564       0.01643204
Li       5.28354500       2.54502000      21.69007300       0.07765738      -0.18344690      -0.06411523
Li      -4.10378597      13.40334592      12.84573699      -0.01997844       0.01595466       0.02048362
Li       2.76748652       3.75824475      17.13009967       0.00744364       0.00774656       0.00581827
Li       3.14125222      -0.59737966      19.25064743      -0.00842418       0.00752558      -0.03677062
Li       1.98515500       4.44934600      24.38304200      -0.78960972      -0.83928117      -1.23646907
Li       7.49637789       0.25411363      13.29919327      -0.00064239       0.01752622       0.02356995
P        2.25944758       0.95162620      14.94828943       0.00019477       0.04458132       0.00464845
P        0.00000000       5.59539200      21.55294200      -0.89556971      -0.34044690      -0.77078123
P        5.57635588       4.11766984       9.65042823      -0.02096241       0.00238832       0.03208535
S        0.79125489       2.35338267      14.50881853      -0.03555067      -0.01026146      -0.00249909
S       -1.67936000       6.56505500      20.86728700       0.46740913      -0.30349153       0.11151537
S        2.68430010       6.28332047       8.57420172      -0.01425466       0.01134095       0.00072366
S        3.65648181       1.20556457      13.45528483      -0.00001272      -0.02083041       0.00799186
S        1.67936000       6.56505500      20.86728700       0.38704632       0.24315482       0.03814063
S        5.25544089       4.57136209       5.62264777       0.01876327       0.00743585       0.00068222
S       -4.27289277      11.39470296      15.46660805      -0.00018365      -0.00050310       0.00437531
S        0.00000000       3.65631700      20.86728700      -0.09506952       0.60229903       0.21887597
S        2.85531153       2.21824529       7.32672392      -0.02170803      -0.04121398       0.02969239
S        2.88168662       1.27983466      16.89524570      -0.01867571       0.00732657      -0.02964695
S        0.00000000       5.59539200      23.60964400       0.35505265       0.13612484       1.20262214
S        4.51677733       2.91640702      11.10304064       0.01048070      -0.00303309       0.00498756
S        3.63435000       3.49718300      23.03668900       0.09683365       0.70628806       0.96350991
S       -5.15438778      12.35725596      10.85604453      -0.03123505       0.02728931      -0.02294118
S        0.70350908       5.04102044      17.33858058       0.01402447      -0.00653348      -0.01323354
Cl       0.00007300       1.39884800      24.52017300       0.49696103       0.86953779       0.03971497
Cl       3.81356381       3.67815243      19.27773868       0.00720793       0.00230143       0.02305356
Cl       1.50449854       5.01065392      11.88155152       0.01758655       0.01710458       0.01548908
Li       9.25385500       2.54502000      21.69007300      -0.03671279      -0.62212383       0.28278923
Li       5.65949547       5.08924416      18.81660829       0.00044667       0.00542297       0.00287835
Li       6.18379705      11.92328494      12.84155807       0.02585903       0.00599764       0.01389031
Li       5.28354500       4.44934600      24.38304200       0.92906968      -0.41518605      -0.83900279
Li       5.48708602      11.41059283      19.02030880      -0.00139174      -0.02038345      -0.03139161
Li       9.31312749       3.87723699      13.12167661       0.03851952       0.00782901       0.04972764
Li      10.90305000       1.59285600      24.38304200      -0.38657583      -0.65364224      -0.29617693
Li       8.45704025       3.25265598      18.77322054      -0.00180274       0.01690771      -0.02010413
Li      10.94874686       6.90026096      12.89745703      -0.00467230       0.00736447      -0.00750919
Li      11.23831634       0.34878371      16.50198793      -0.00609130      -0.04878021       0.01832138
Li      10.90305000       5.40151000      21.69007300       0.54747910       0.14791943      -0.12079057
Li       6.26430206       2.87541652      12.83455623       0.01174039      -0.00538703      -0.01066905
Li      12.55224600       2.54502000      21.69007300       0.46831145       0.22920570       0.09206679
Li       0.11989803      12.46410579      12.78115051      -0.00438050       0.00770847      -0.01646575
Li      12.98768876       4.67212670      19.59625172      -0.02052284       0.06639368       0.02815149
Li      10.85288508       1.25576309      19.45862428       0.01122221      -0.00700307      -0.02465310
Li       9.25385500       4.44934600      24.38304200      -0.59298634      -1.06772646      -1.42163418
Li      -0.39075867       0.54712217      15.71618856       0.01033559      -0.00059965      -0.01147760
P        8.79528836       1.25611229      15.61130173      -0.00037041       0.00349515       0.03632572
P        7.26870000       5.59539200      21.55294200       0.41159066       0.11742345      -0.95294885
P       10.07977301       5.05098664       9.64451047       0.00708693      -0.01151620       0.01373894
S        6.75526795       1.57409804      15.17025129      -0.02687094      -0.00551141      -0.02039739
S        5.58934000       6.56505500      20.86728700       0.18140427      -0.20912808       0.18801734
S        8.21203697       2.37542524       7.41877530       0.00675731       0.00474155      -0.00324665
S       10.10630788       2.75610609      15.14445814      -0.02591192      -0.00078186       0.00320949
S        8.94806100       6.56505500      20.86728700      -0.32365545      -0.00207723       0.21899439
S       -0.74884323       4.05536128       7.32904767       0.03153331       0.00055200      -0.01200130
S       -0.08530371      11.30173632      14.93022986       0.00586968       0.02160201       0.02553590
S        7.26870000       3.65631700      20.86728700      -0.25701803       0.31191757       0.29323866
S       11.33414983       0.99104125       9.83880896       0.02284721      -0.00262446      -0.00216583
S        8.95053187       0.87239312      17.60861754      -0.00394284       0.01247506      -0.01779952
S        7.26870000       5.59539200      23.60964400       0.10796896      -0.04872447       1.25072229
S       11.15437730       4.69640931      11.52705673       0.02235752      -0.00043557      -0.00378288
S       10.90305000       3.49718300      23.03668900      -0.26651983       0.60665735       1.15106444
S        8.16800451       1.68389717      11.51252471      -0.01236952       0.00518114       0.01416029
S        7.62758105       5.06290699      17.44431657       0.00962028      -0.04914217      -0.01610769
Cl       7.26877300       1.39884800      24.52017300      -0.07643543       1.03919232      -0.10233186
Cl      10.77804897       3.75514804      19.11250859      -0.01587406      -0.02854974       0.00431034
Cl       7.28102123       4.89314797      13.55374219      -0.02717110       0.03343750       0.02386043
Li      -1.64919500       8.83989900      21.69007300      -0.46155317      -0.11484149       0.06578341
Li      -6.52865256      10.58066971      21.02444434      -0.00749913      -0.00677702      -0.01179261
Li       2.44936368       6.97804947      12.81845595       0.01138538       0.02442191      -0.00621099
Li      -5.61950500      10.74422500      24.38304200      -0.03958839      -0.51724869      -0.51084067
Li       1.64571967       4.63834854      19.41814373      -0.01658429      -0.01189561      -0.02963113
Li      -2.22974251      10.05070088      14.91489031      -0.00221218       0.00038366      -0.01318640
Li       0.00000000       7.88773500      24.38304200      -0.44482226       0.05626036      -0.19283269
Li      -4.85589472      11.12242669      19.00740718      -0.00668145       0.01147124       0.01977463
Li      -1.82475077      13.00448396      14.58096061      -0.01114026      -0.00182391      -0.00744331
Li       1.36446776       7.33184775      17.61632712      -0.00667664       0.02001711       0.00597719
Li       0.00000000      11.69638900      21.69007300      -0.18319140       0.32362073      -0.18274380
Li      -4.81112654      10.05679436      11.21034857      -0.02343542       0.00567931      -0.01858162
Li       1.64919500       8.83989900      21.69007300       0.15568683      -0.04796136      -0.03544060
Li      -0.39098501       6.44537622      12.76856639      -0.01783768      -0.01169790      -0.00802611
Li      -0.86601160      10.99039640      17.16356945       0.00395248       0.00774299      -0.00647633
Li      -1.24058691       5.62790646      18.61179166      -0.00477906       0.00241978       0.00747265
Li      -1.64919500      10.74422500      24.38304200      -1.02852344      -0.78339062      -1.31778612
Li       5.46010157      11.24854992      15.43009350      -0.00414512       0.00868398       0.02237414
P       -2.57484816       5.85270673      15.05059154      -0.06686039       0.02905058      -0.02087193
P       -3.63435000      11.89027100      21.55294200       0.13966625       0.31594094      -0.83329475
P       -0.47651693       9.38907367       8.71604852      -0.00667338      -0.00283589      -0.02517103
S       -4.28976267       6.02871743      13.88779388       0.01576325       0.00472089      -0.00167887
S        1.95499000       0.27017600      20.86728700      -0.03813429       0.32255667       0.10101832
S        0.74324903      11.69485416       5.36201017      -0.00098934      -0.01574728       0.03505943
S       -1.45357421       7.63064047      14.87324871      -0.00607101      -0.03149566      -0.00954058
S        5.31371100       0.27017600      20.86728700      -0.14837565      -0.45666820      -0.04366388
S        3.24566786       9.93408266       8.63349918       0.04745093       0.01926412       0.00469006
S       -1.36861034       4.42729185      14.15253877       0.06627487      -0.01298110       0.00482787
S       -3.63435000       9.95119600      20.86728700      -0.13909107       0.03089716       0.00953874
S        0.96523454       7.35928836       5.48798007      -0.00208601       0.00449319       0.01522906
S       -3.05219496       5.29544810      16.92636824       0.00278193       0.00672404       0.01798512
S       -3.63435000      11.89027100      23.60964400       0.36732610       0.07150840       1.51588774
S        0.98601963       8.52759251      11.87718475      -0.04129064      -0.00605796      -0.03521372
S        0.00000000       9.79206200      23.03668900       0.15287474       0.22809696       0.85233271
S       -2.03106309       6.58876699      10.89597975       0.01300010       0.00061937      -0.00039971
S       -3.26372394      10.69816879      17.11780959       0.00306706       0.00115352      -0.00392925
Cl      -3.63427700       7.69372700      24.52017300       0.83185454       0.52308232      -0.00241323
Cl       0.69970805       9.64668639      18.26475477       0.00400121       0.00083655      -0.01455270
Cl      -2.84499488      10.01615887      12.41632469       0.00371745      -0.00998442      -0.01433317
Li       5.61950500       8.83989900      21.69007300       0.01057628       0.07473617      -0.08936657
Li       1.97873855      10.48241751      16.26643938      -0.02016186       0.00806871       0.00397756
Li       8.36188617       6.23674203      15.52653564       0.01919214       0.01730169       0.00107445
Li       1.64919500      10.74422500      24.38304200       1.06504170      -0.19042755      -0.91918323
Li      10.03904772       4.51415253      17.00634519       0.00132990       0.01072654      -0.02420205
Li       7.91396382       9.13032562      14.46554379       0.00211017      -0.02358093      -0.01192076
Li       7.26870000       7.88773500      24.38304200      -0.26422853       0.35612723      -0.28604829
Li       2.47610080      11.13423620      19.02141422       0.01203615       0.00692487      -0.01378542
Li       8.86417868      10.84261975      16.58145303       0.01077027       0.02313106       0.01397938
Li       6.40994424       4.06052274      15.71840887       0.02697532       0.01138913       0.01360067
Li       7.26870000      11.69638900      21.69007300       0.13470110       0.20240202      -0.06303321
Li       4.08262643       8.90476888      13.72734163       0.00304131       0.02745958      -0.00163818
Li       8.91789500       8.83989900      21.69007300       0.25007629       0.12365789      -0.09979955
Li       5.43928423       6.27698274      13.45968464       0.01067212      -0.00503115       0.01543750
Li       5.15749213       9.15742713      17.67019535      -0.00541286       0.02330650      -0.00916040
Li       8.10861709       7.24185943      18.53999755      -0.00259203       0.01549061      -0.00069250
Li       5.61950500      10.74422500      24.38304200      -0.68233105      -0.74106494      -1.47352381
Li      -2.92581757       7.73223454      12.96013900       0.00767475       0.02567177       0.00383852
P        3.97862290       6.92239367      15.95726620       0.01904580      -0.00728856       0.02360298
P        3.63435000      11.89027100      21.55294200       0.06812588       0.67520298      -0.32204202
P       10.09659007       8.79769390      10.69191944       0.01809228       0.01507934       0.01953250
S        2.32363667       7.87010265      15.14867907       0.00187650       0.00228393       0.01523014
S        9.22369000       0.27017600      20.86728700       0.62894524       0.47597089       0.27978211
S        7.02009723       8.98137501       8.83810629      -0.03178206       0.01023914      -0.01700082
S        5.65540692       7.96199872      15.28836567       0.00674308       0.00394840      -0.01103825
S       12.58241100       0.27017600      20.86728700      -0.16762791      -0.22847512       0.11698345
S       -3.32350284      10.82484965       5.54704099      -0.01715010       0.00314690       0.00675363
S        3.97768264       5.01094624      15.17254697      -0.00009992       0.01912472      -0.00768912
S        3.63435000       9.95119600      20.86728700      -0.06382174      -0.35353993      -0.11240346
S        8.58961176       6.45530802       6.40836377      -0.00027678       0.00975220       0.00137863
S        3.91165229       7.05179115      17.96018476      -0.01078428       0.00905968      -0.02549989
S        3.63435000      11.89027100      23.60964400       0.09705294       0.00307842       1.36530219
S        8.86413617       8.19899800      12.34820534      -0.02076240       0.02807800      -0.02396654
S        7.26870000       9.79206200      23.03668900      -0.17797484       0.17440797       1.17084925
S        4.55771954       7.63189500      11.66836045       0.00499810       0.01799561      -0.02288883
S        4.03785275      11.18659124      17.22217086       0.01596032      -0.01310251       0.02852676
Cl       3.63442300       7.69372700      24.52017300      -0.38778388      -0.76986328       0.57837913
Cl       7.04650518       9.55347130      19.02069824       0.01085376       0.00433981       0.00371064
Cl       4.00705383      11.22873216      13.43551940      -0.00343814      -0.01794134      -0.00394237
S        9.88112412      10.95561434      10.61219492      -0.03669677      -0.01903903       0.02820989
S        0.91058278       1.34692223      10.57615716       0.02508910      -0.01577674       0.00985949
S        1.42576359      12.70474303      10.66642037       0.01207652      -0.02027419      -0.03431817
S       -2.09964095       0.14861410       8.53213343       0.03381263       0.01832376       0.02546449
S       -8.18695678      10.83746086       8.52641576      -0.00233484       0.00561436      -0.00951138
S       -5.69386763      13.44999801       7.29326421       0.02057571       0.00831792      -0.00370951
S       11.67573620       4.64387617       8.11876831      -0.01487528      -0.00758239       0.01305094
S       -1.88166054      13.22417614       8.45706829      -0.04709883       0.03512830       0.01002954
S        5.54447304      12.22021589      10.44981061      -0.03575399      -0.01718690      -0.00340840
S       -4.53504817       2.93034912       7.30443620      -0.02107937      -0.00806982       0.01442234
S       -3.04555623       7.05602585       6.31467094      -0.00260333       0.00451791      -0.03793156
Cl      -1.11254222       1.39350204      17.67713738       0.00948911       0.02313184       0.01880075
S       -1.80419027      13.76659284      12.34414072       0.00079987      -0.00846969       0.00418962
S       -3.63435000       3.49718300      23.03668900       0.22365009       0.12964351       0.13932388
S        5.39695744      -0.60184311      18.99968993       0.07234381      -0.02313389       0.05011064
S        3.63435000      -0.69948700      23.60964400       0.01610111       0.70974383      -0.42274269
S       -3.46130493       3.12927454      10.62663466      -0.01216798      -0.02172468      -0.03559835
S        1.37708389      -0.88333239      14.74224964      -0.02343722      -0.02525151       0.01452107
S        5.31371100      12.85993400      20.86728700      -0.13524804      -0.05530202       0.25916936
S        9.58799681      11.12927596      19.85693914      -0.00092646       0.02026527       0.00066321
S       10.90305000      -0.69948700      23.60964400       0.07722057       0.77239769      -0.35584093
S       12.02705804       8.47058491      11.33182505       0.00875669       0.02587534      -0.02237282
S       10.82598756       5.94962750      15.14469719      -0.02019985       0.00445474       0.02133162
S       13.78271590       0.44323632      19.26434027       0.01699782      -0.01333044      -0.02012315
S       12.92629044       1.49193432      17.79151227      -0.01812497      -0.02845939      -0.00893283
S       12.85804000       6.56505500      20.86728700      -0.18693551      -0.51368868       0.05289806
S       14.53740000       3.65631700      20.86728700      -0.51823325       0.14655754       0.03091050
S        9.49348450      -0.41044990      14.55942524      -0.01202413       0.00238395       0.05961961
Cl      -6.91827806      10.27106938      18.78523712       0.00437552      -0.00186853       0.01874735
S       -4.09891347      13.41748670      15.28584099       0.00453736       0.02570594      -0.00019190
S       -5.31371100      12.85993400      20.86728700       0.35632398      -0.47136729       0.15990258
S       -7.26870000       9.79206200      23.03668900       0.16430304       0.27754709       0.34319926
S       -1.95499000      12.85993400      20.86728700       0.12869547      -0.16199494       0.16890843
S        1.95499000      12.85993400      20.86728700       0.24533669      -0.38826463      -0.02671470
S       -4.94178310       8.50826746       9.31429758      -0.04721145       0.00937027      -0.02014297
S       10.92164589       7.90460385      15.81345322       0.03744115       0.00829781      -0.01639553
S        9.02143620       8.41749517      16.44273590      -0.01963568      -0.03465000       0.00453323
S        7.69296083      11.41845325      14.50703878      -0.03864190       0.05262823      -0.04610904
S       10.47845386      11.70724971      18.12378178      -0.00140381      -0.00433639       0.02252951
S        9.22369000      12.85993400      20.86728700      -0.03009347      -0.35544700       0.03432674
S       10.90305000       9.95119600      20.86728700      -0.32756563       0.18512579      -0.11832190
Li      -5.62119422      11.06361765       8.70131832       0.00217716      -0.00368982       0.00133381
Li      -0.13670065      13.39779579       6.81147814      -0.03854796       0.03072437       0.02851601
Li      -4.17520008      13.69551186       9.13066871      -0.00485451      -0.00662587       0.00771347
Li      12.60880897       3.11723508      10.00555592       0.00893394       0.00409058      -0.00077911
Li       6.82777375      14.14216853      10.13119341       0.02369530      -0.00635513      -0.00684288
Li       9.42655603      10.81043521      13.00878950       0.00743674      -0.00094370      -0.01795744
Li      -4.09507331       1.29452115       9.13053364      -0.00001525       0.01623306       0.00513174
Li      -3.01059418       4.71001891       6.74948376      -0.00249496       0.00181198      -0.01119391
Li      -3.07427073      -1.04905484       6.88429707      -0.01048870      -0.03815040      -0.02161015
Li      -7.85772866      12.68151799       6.74560539      -0.00987798       0.00648630       0.00258140
Li      10.20547422       0.34796491      12.14797127      -0.01586155      -0.00507591       0.01559830
Li      -7.27047411       8.60172360       8.92102696       0.01682766       0.01092044      -0.00414146
Li      -4.81377544       6.52934050       7.87259814      -0.01170558       0.00918883      -0.00126557
Li      12.33846818       6.45350024      10.10449529      -0.00303583      -0.01197193      -0.00638841
Li      -2.89255448       4.75511112      12.34084645      -0.02177956       0.01166037       0.00568241
P       -4.48561969       4.16969042       8.99360588       0.02348080      -0.03271702       0.03104957
Li      -4.39808757       6.59770916      10.69414217       0.00073892      -0.00050697       0.02229532
P       -7.28595099      10.07919117       6.75382616      -0.00066879       0.00017485      -0.00057928
