279
Properties=species:S:1:pos:R:3:momenta:R:3 LayerForceGeomOptConstraint=T E_ref=-1063.5714876078905 step=1800 pbc="F F F"
Li       4.08331783      13.48282327      18.06946280       0.74198665      -0.54803890      -0.16889739
Li       6.78751213      11.66241696       8.11939646      -1.09857067       1.35990337      -0.31552836
Li       2.87163538       0.95130311      12.69129171      -0.03379362       0.10944512      -0.17442402
Li       3.99671154       6.24891943      22.52900657      -0.17681477       0.28932360      -0.16652610
Li       0.90510495       7.55499339       9.67828327       0.33554036      -0.30632704       0.22489240
Li       7.58962589       2.45283566      10.45016847       0.30880976       0.30564608       0.30177596
Li      12.25707852       0.54638136       8.09661359       0.02558528      -0.64152116       0.09418755
Li       2.46225746       5.09363036      11.16807831       0.50025902      -0.09910568      -0.17876821
Li      -1.56499874       1.91959352       5.51401581       0.41920472      -0.21283187      -0.03597377
Li       6.77300034      -0.36341550       9.97749174       0.35722452      -0.21775400       0.22369106
Li       5.94148619      12.10530433      11.45202984      -0.28061323       0.28817131      -0.05244894
Li       0.56725760       5.53847645       4.19059978       0.20139473       0.12393407       0.54271835
Li       3.30971295      -0.00448976       6.16408639       0.45450402      -0.33698454       0.33119453
Li       3.07174134       0.60762137       9.86467658      -0.31938792      -0.31834941      -0.07925317
Li      -2.17948400      10.73850822       8.39544409      -0.09223575       0.25719951       0.27503625
Li       0.95227128       1.74836670       6.75545020       0.03690820       0.07055364       0.11990536
Li      -5.42411831      12.94208588      22.53917811      -0.21129824       0.13285552       0.31127935
Li      -0.97120237      14.14478070      10.03448356       0.59780365      -0.13694742       0.00765929
Li       7.92776382      -0.68187087      12.90591387      -0.11685418       0.17280788      -0.16010539
Li      12.03725486       5.59180087      21.36387756      -0.16244083      -0.00167281      -0.10731857
Li       9.90170416       5.33335147       9.53442568      -0.03816605      -0.12604752      -0.59476846
Li      -1.12475438       3.37614470       7.74963459       0.09946560       0.09541354      -0.35740340
Li      -5.29623596      10.32498098       7.82780017      -0.00098542      -0.69618779      -0.66316741
Li      11.72630427       5.67894951       7.16475024       0.06561765      -0.48390602       0.70968496
Li       5.24363531       2.24249704       7.70936955       0.41402330      -0.01079282       0.00870221
Li      14.63349706      -1.01133157       9.89897121       0.91484460       0.36294139      -0.91198782
Li      -8.22882356      10.66605239      12.52407952       0.05947726       0.18862652       0.04939183
Li       3.97342399       4.12111383       9.13799718       0.17557574      -0.09818548      -0.23516393
Li      14.91108809       3.17092916       7.85646491      -0.40582687       0.08361838      -0.06864715
Li      10.70863698       1.75472244      10.19530276       0.19801718       0.06264850      -0.05252950
Li      -3.27060263       8.01269029       8.83291388       0.71952888       0.93199180       0.19942051
Li       8.59341177       3.78395325       7.34842344      -0.26623546      -0.07489401       0.35653670
Li      10.08665863       6.32648873      23.57883183      -0.21247004      -0.07766233       0.22465003
Li      10.55415210       9.87002932      10.74872136      -0.60130422       0.34879851       0.14284121
Li      -4.29232021       9.30457975      11.17397485       0.42886004       0.13479504       0.10234726
Li      -2.25324931       9.47520448      22.48616785      -0.78921444       0.56275529      -0.55848867
Li      -0.11622668      11.59999548      12.21328788      -0.23350614      -0.62434398      -0.29856621
Li       3.54957130       7.25538140       9.44700684       0.52094828      -0.67219480       0.46466381
Li       0.14943228       6.46971856       6.99973227       0.27590099      -0.36073194      -0.22748711
Li       0.80723397       9.60157820       7.65075135       0.29441487      -0.24358912       0.50288343
Li      -3.83615824      12.46617850       6.95040579       0.52321246       0.10091929       0.32208827
Li      -2.46214652       9.06588275       4.24923150      -0.40283382      -0.43700274      -0.44517661
Li       5.72260535       4.79056696      10.81464497       0.27538851       0.26133138       0.08367532
Li      -3.86340083      12.70787942      12.85945769       0.12265565       0.73858809       0.58237152
Li       2.77032222      11.95847902      10.57236655      -0.75799899      -0.29057857       0.42254259
Li      -1.15883616       8.98908154      11.10407948      -0.07358484      -0.19937321      -0.32645778
Li      -2.10770891       5.40485665       5.54461001      -0.52788806      -0.19909318      -0.25810597
Li       0.80563811      12.53121305       8.56363031       0.34099011      -0.17225951       0.35646497
Li       1.26092734       7.87735285      22.81899537       0.09686312      -1.04525430      -0.23662696
Li       1.79697867       2.83664170      10.03336068       0.26189538      -0.52463118      -0.38438488
Li       3.50533694       8.91345300      11.78349319      -0.09152280       0.21939873       0.02237851
Li       9.17973280      10.41437655      24.03615432       0.58156786       0.53636449      -0.41335358
Li       4.81019873       9.83989957       9.12720770      -0.01274087       0.00434848       0.42076377
Li      -4.89261656       7.76314396       6.54877498       0.77296807      -0.68319985      -0.50287802
Li      -2.07686582       8.08806748       6.69486972      -0.11747408       0.75009833      -0.96051399
Li       3.25996351       9.97099557       5.87519742       0.15272632      -0.22113772      -0.33283104
Li       0.64456729       9.54102185       4.78377150      -0.26024072       0.12308391       0.52805842
Li       7.16544051       6.17596045       7.87743562       0.08888939      -0.07787497       0.11219739
Li      -1.86225288       5.69414809       9.50605353      -0.70002237      -0.11639064       0.58220688
Li       3.81224073      11.81854301       7.36753689      -0.46565854       0.15111252       0.15475410
Li       7.21902968       8.75767812       7.42526293      -0.48112379       0.92702622       0.58023795
Li       5.90561531       7.43563066      12.97111287       0.14197488       0.00803506      -0.12256458
Li       1.93746442       4.10493959       7.07033976      -0.67320757      -0.30863300      -0.67149336
Li       9.81463978       7.92208172       8.66794961       0.12740204       0.39918311       0.47383091
Li       2.62623569       2.77253083      20.84015487       0.58059313       0.48741745      -0.16628698
Li      -1.73641265       5.52273883      18.25921215       0.03587086      -0.06847338       0.61960075
Li      -3.43632504      12.88161505       9.88489373       0.24638133       0.79380241      -0.15046707
Li      -0.51939445       2.98554359      23.43205867       0.33364943       0.39864410      -0.08500080
Li       4.91135421      -0.83349886      18.42296507       0.12424210       0.72495424      -0.69525620
Li      -0.30567410       0.25858712      13.04833287       0.86129531      -0.73516056       0.46721733
Li       3.03515313       1.63835764      23.85042198       0.00303089       0.41168945      -0.64412835
Li      -1.73863534       1.36492658      16.87257115       0.17291203       0.04169017       0.17182286
Li       2.24470662       3.72426121      17.06983804       0.29723414       0.48149807      -0.34227599
Li       3.59327150      -0.80760826      15.51894215      -0.14738614       0.70652664       0.07048437
Li       5.12567474       4.14430941      20.62843639      -0.34821112       0.04026511      -0.14642713
Li      -1.18486082       1.57681195       9.87520540      -0.45154862       0.37017169      -0.76401608
Li       5.88390149       1.08602834      22.25458965      -0.51443844      -0.13018642      -0.09168562
Li      -3.93214845      15.33546772      13.25933570      -0.92551171       0.49115288      -0.95339310
Li      -0.37911582       3.57368503      18.66230418      -0.00610771       0.19705640      -0.03307016
Li       1.93908574      -0.49137709      18.55248542      -0.27744638      -0.18941019       0.27381047
Li       2.06422429       4.02049562      23.65653078       0.27079818       0.03976157       0.18961308
Li       9.65325078       2.05720611      12.59100906       0.32137577      -0.55774357       0.41802914
P        0.78186453       1.14951907      15.63340732       0.14799703       0.39038222      -0.93926222
P        0.15126596       5.53646237      21.38295317       0.60715311       0.93997515      -0.06306026
P        4.01511546       2.96613947      11.22369160      -0.52304261      -0.29987429      -0.77734697
S       -0.84774028       2.10261900      14.72391424       0.19461113       0.85392138       0.63802864
S       -1.53882515       6.52251642      20.91575241       0.74944961      -0.99455514       1.27520511
S        1.63275052       5.41313095       8.89888884      -1.24066551      -0.20474377       0.32517890
S        2.57603771       1.95992162      15.06417037      -1.16992922       0.04618155      -0.77788520
S        1.83128310       6.84217172      20.79549205      -0.85934296       0.93525959      -0.88933869
S        6.57228564       3.92118718       8.64904793       1.09881467      -1.71818535       0.67891931
S       -3.52768559      13.60405451      15.87999825       0.87234877      -0.14130331      -0.25425206
S       -0.06370278       3.51204502      21.04255633       0.00494379      -0.13670406       0.48646943
S        3.08948180       1.92663253       7.47465030      -0.32362801       1.43382577      -0.79929717
S        0.60339193       1.42631984      17.76230254      -0.18269553      -0.57442103       0.91010048
S        0.34024377       5.84390801      23.58085124       0.26343081      -1.28422464       1.76518264
S        4.93255598       0.90371468      11.26338144      -0.39623320      -0.66568980       0.31262498
S        4.11670139       3.83908774      22.65628536      -0.02264728       0.51894417      -1.58150453
S       -5.82668264      11.13512864      12.57771468       0.60184961      -0.58437063      -0.87799748
S        0.39384302       5.49297854      17.13587274      -0.28881969      -1.21044182      -0.78869259
Cl       1.13851338       2.39917526      24.85491254       0.73644082      -0.43162385       1.08744425
Cl       3.90029641       4.28482817      18.59407499       0.59073288       0.58760869       0.75395790
Cl       0.82776637       5.17148672      12.94694599       0.25426322      -0.49794722       0.77035974
Li       9.59536241       0.34539117      23.66647493       0.08044655      -0.14665802      -0.36095141
Li       5.42918304       5.71319519      17.66390239       0.34170320      -0.92876339       0.12954818
Li       9.78373800      12.41679294      13.62100679      -0.13769734      -0.45829293      -0.89594200
Li       6.50241026       3.83275111      23.43494518       0.33683223       0.25679493      -0.08547131
Li       6.90959702      12.31014065      16.86631115       0.49659890      -0.11917128      -0.36616703
Li      12.32047645       3.46585452      13.96454098      -0.61687304       0.29029000       0.45834834
Li      12.33435765       2.58369765      24.07332345      -0.08941918       0.12002741       0.56955872
Li       7.80853947       3.41830487      16.99096636       0.00605660      -0.45670670       0.46871446
Li       9.63825409       5.39600710      13.18316069       0.55970819      -0.47186416       0.69512618
Li      10.69317444       0.68221428      15.21050063      -0.47501209      -0.29244606       0.31831214
Li       9.33482941       4.98475673      19.28898961      -0.11296365       0.31081931      -0.25305819
Li       6.40171659       2.09782866      12.97248175       0.53289804      -0.71496012      -0.12364856
Li      11.60425633       2.82498912      21.46578055       0.04752407      -0.19223966       0.18927796
Li       1.87571093      13.56547709      12.82838495       0.06208370       0.51563654      -0.42488174
Li      12.10683793       2.28907655      18.03548491       0.18529376      -0.74100504       0.37728311
Li       9.73530324       0.45947440      18.23166332      -1.12887644      -1.59954181      -0.50631737
Li       9.39382523       3.01332420      22.53843309      -0.10972350       0.45929084       0.60558485
Li       0.05251333       3.04117035      12.09756194       0.60585278       0.11040671       0.06065027
P        7.48358690       0.37409060      15.53742016      -0.40341491       1.18861343      -1.65391391
P        7.75826417       6.06966187      21.83966046      -0.03275579       0.14154984       0.71147576
P       12.20149854       3.01579353       6.92625584       1.38326815      -0.01406575      -0.92241289
S        5.83118377      -0.05187056      14.30886955       0.02273371      -0.38476885      -0.20004145
S        6.01007706       6.80888671      21.05175110      -1.24169701       0.03311703       0.20921472
S       10.44083219       1.98528734       7.65726291       0.07754129       0.75643230       1.47148326
S        8.63910599       2.13009477      15.03875658      -0.70664964       0.71299918      -0.26326451
S        9.42013349       6.94255707      20.87601383      -0.76906318      -0.61511177      -0.71398482
S       -0.03024515       3.83430473       5.59254811       0.15106243      -0.64899093      -0.52932901
S        0.57675983      12.20775071      14.25659271      -0.64284634      -0.13810447       1.38726185
S        7.74870582       4.05176939      21.21110349       1.43505357       2.63298796       0.61417764
S       12.77116973       0.24277091      10.36043806       0.24545025       0.93732278      -0.37775350
S        7.18129796       0.41967799      17.51937284       0.23973909       0.75943959       0.59058001
S        7.75344792       6.04783077      23.88449573      -1.65611371       0.68506107      -1.24234375
S       11.20641091       3.50596877      11.75477670       0.52803335      -0.04626939       0.08771404
S       11.14561198       4.28669688      23.40847717      -0.06866034      -0.45635687       0.04700216
S        8.74950161       0.19748710      10.90798734      -0.50605253      -0.42402728       0.41402785
S        7.71547670       5.79579655      17.60007116       0.76619615      -1.02361937      -0.72023882
Cl       7.67895220       1.85487238      23.98779463       0.40137174       1.77228459      -1.34305511
Cl       9.84264160       2.84933412      18.11916543      -0.08475465      -0.18336124      -0.01044427
Cl       7.62344909       4.05427399      12.12140942      -0.15762162      -0.68570179      -0.12240216
Li      -1.84586022      11.34489569      18.26849982       0.03331033      -0.12598706       0.28878734
Li      -5.75172703      11.61310807      19.87017890       0.67865972      -0.02687821       0.83021495
Li       2.02901243       7.15401635      13.11854453       0.20437615      -0.15142716       0.20867968
Li      -5.43182816       9.65357513      22.01593260      -0.97930530      -0.39206388      -0.02511848
Li       2.28207187       5.93833668      18.67319027       0.22700091       0.07512883      -0.37732429
Li      -3.80854000      10.19177818      13.79637937       0.39706528       0.66466201       0.30707057
Li      -2.67852812       6.29919251      22.82967001       0.26722315       0.15601553      -0.08104994
Li      -4.78506427       9.51703394      16.85569337      -0.57749547       0.05100802       0.50612721
Li      -1.45294830      13.45340459      13.86906774      -1.59058996       0.39121414       0.55324495
Li      -1.26991661       4.25917597      15.98519674      -0.18364210       0.15449026       0.39897216
Li       0.96257007      11.55745924      20.47539578       0.15448989       0.80451997      -0.21988745
Li      -5.75988924      11.92702014      15.68949222      -0.11781849       0.12222630      -0.06169347
Li      -0.02779567       8.27566844      20.43512195       0.68152779      -1.09976044      -0.60790583
Li      -1.26747051       6.39894400      12.83691709       0.20267198       0.64570528      -0.00006995
Li      -0.78903892      10.60408333      15.66340001       0.44630533      -1.41258998       0.12639440
Li      -0.29293423       7.76614715      16.91656127       0.60659931      -0.45800669       0.20814877
Li      -0.48997001      11.91271887      22.86360658      -0.56043817      -0.35591203      -0.37228004
Li       5.20827301      12.24632485      14.76752524      -0.20050676      -0.31829996      -0.61643323
P       -3.02638815       7.41863611      15.20911066       1.11570484      -2.13479428      -0.28967724
P       -3.04601366      12.23322481      21.20333302      -0.99030519       0.36552414       0.32100506
P        2.36265124       9.56216940       9.73457691      -0.75892016       1.55358020      -0.25482390
S       -4.83742398       8.24632077      14.72642693       1.49600889      -0.23957648       1.08426488
S        3.13151961      -0.02058767      21.88057853       1.22628305      -0.08570555      -1.19257651
S       -1.01157237       8.64393753       8.76165481       0.89389703      -1.41645458       0.86512827
S       -1.49940312       8.46700640      14.33770714      -1.81272547      -0.35559577       1.89249326
S        3.78779837       0.82462579      20.08108974       1.13105518      -0.46058527      -0.17688645
S        1.55213603      11.38430313       6.26261246      -0.55649423      -0.70560680      -0.82826770
S       -3.02768799       5.40066389      14.69584997      -0.74200191      -0.39839006       0.25949462
S       -3.38683234      10.41358971      20.29806388      -1.01395823      -0.19020100      -0.21377160
S       -0.56002854       7.42139238       4.81028332      -0.35299102       1.81935043      -0.89355753
S       -2.96838388       7.68290790      17.25673398      -0.09416240       0.38062851       0.33116328
S       -2.96316485      12.02896640      23.27670176       1.52120293      -0.48503106       1.31296691
S        1.19609106       9.43615707      11.57790302       0.24387291       1.52315859       0.08485640
S        0.17372390       9.85597360      22.18804718       0.23629293      -0.25196350      -2.03910814
S       -3.17299571       6.91156784      11.28319675      -0.39968442      -0.03865324      -0.46271236
S       -3.14183464      11.34326022      15.76010016       0.01148356      -1.75635212       0.91034719
Cl      -4.07466242       7.93347019      23.11699567       1.47955627      -0.49958006      -1.63295052
Cl       0.13501240      10.03241306      18.18996103       1.09242667      -1.19169686       0.13295329
Cl      -2.51921610      10.76784884      11.36491973      -0.95871431      -0.01578884       0.05305775
Li       5.54777830       9.26555261      21.05961918      -0.23815159       0.06168649      -0.14366355
Li       1.84184659      13.01859716      16.09441134       0.31683625      -0.53251141       0.13955055
Li       8.68712398       7.53697410      11.37350352      -0.50887669      -0.56834351      -0.06478558
Li       2.67258205      10.43354612      22.68446116       0.09282655      -0.05909624      -0.19811955
Li      11.11409190       4.65817925      16.85126745       0.05778132      -0.25719134      -0.41248385
Li      11.27084804       7.95604335      12.98910614       0.09704213       0.00633408       0.22443267
Li       6.36720249       8.29025091      23.65730611      -0.33363521       0.38034471       0.52691034
Li       2.45087773       9.97222019      18.08033271       0.46938352      -0.06891283      -0.55671009
Li       9.23159576       9.48577017      14.63738584      -0.58758242      -0.04527947       0.29794586
Li       7.28718017       6.50733248      15.47491635       0.16879308      -0.11358317      -0.44308245
Li       7.62155946      10.93817292      20.47231714       0.17210058      -0.01262510      -0.46777732
Li       2.77402442      10.69287270      14.75834344      -0.03899958       0.52910412       0.27026302
Li       9.09868030       8.74729279      22.03708625      -0.52528095       1.26978592       0.75057490
Li       3.84817707       4.75667234      13.24088100       0.48150147      -0.49992932       0.20288182
Li       5.11272105       9.89717522      16.95496758       0.47142937       0.34790382       0.71148583
Li       7.68389880       7.84368525      18.93854436      -0.16548299       0.09568893       0.32532356
Li       6.27691895      12.28624036      22.24980945      -0.01612322      -0.29743506       0.91529327
Li      -5.05477571       7.04792413      12.67008001      -0.10259494       0.17315062      -0.08841657
P        3.79147496       7.83287339      15.63459421      -0.60913480      -0.55027462       0.23023043
P        3.96818726      12.36278020      20.72235663      -0.26519859       0.85494753      -0.23488672
P        7.71830484      10.09725760       9.92463889       0.16713507       0.81903751       0.92586303
S        1.89290840       8.47823043      15.07480934      -0.84079613      -0.53755890       0.26577117
S       10.00603605       0.87961914      21.46132725       0.05577813      -2.09238948      -0.28062135
S        5.27394744      10.09801119       6.68431653       0.99586701      -0.72134393      -0.01395957
S        4.95327737       9.08733787      14.65419596       0.15321243      -0.09314262      -0.26540298
S       11.88218114       0.25882230      22.26624122      -2.33459543       1.19778374       1.51042509
S       -3.60499789      10.01125082       6.18777763      -1.47886819       0.94922071       1.69444613
S        4.49575177       5.95034522      15.30171619       0.18554707       1.80784681      -1.56335454
S        3.53473235      10.37132013      20.36626873       0.23388429      -0.89785408       0.32338221
S        9.23486736       6.11674429       7.39243063       0.41031848      -0.23673525       0.79820370
S        3.82968630       7.83424092      17.76856958      -1.74063571       1.57561594      -0.14842488
S        4.01315353      12.70582234      22.79343168       0.43873440       0.18478581       0.12887774
S        6.74153954       7.84185501       9.82227058      -0.35093700       0.43234673       0.30585883
S        7.27177401      10.22681411      22.54870138       0.69658527      -0.50406293      -1.00387729
S        3.97711154       6.67477010      11.75733781      -0.47229306       0.05170084      -0.29779676
S        3.78175239      11.78990780      16.63785308       0.10367732       0.57963417       0.72252311
Cl       3.75363468       8.45604615      23.68919830      -0.62999802      -0.62044381      -0.19153056
Cl       7.00887424       9.92660593      18.62876734      -0.21199765       0.86057005      -1.46481142
Cl       4.02825777      11.90714654      12.77328771      -1.07292840      -0.61340926      -0.46680747
S        9.08096330      10.16314871       8.40760309       1.23261453      -0.87361427       0.80181650
S        0.88201770       0.85424106      11.00739883      -0.88485449       0.30389132      -0.86416444
S        1.33385097      13.64816945      10.53170637      -1.22516464      -0.12762557       0.20963314
S       -1.31463289       0.93800460       7.60949021      -2.17800295      -0.78697202       0.19597428
S       -8.74239354      11.00450006      10.07353157      -0.11042415       0.50721155       0.03871280
S       -5.52526410      12.64591601       8.75960913       0.81800556       1.20335938      -0.92325318
S       13.10008082       4.47795791       8.59203135      -0.71762942      -1.28406108       1.68681616
S       -1.60918824      12.91065261       8.13863834      -0.86978802       0.03635644       2.68067587
S        4.89519975      12.53590079       9.46113444       0.71517242       0.39327662      -1.18308094
S       -5.21042238       3.06936222       9.44974257      -1.48583908       0.26623677       1.27059718
S       -3.38829362       6.05376734       7.29335265      -0.92783509       0.31489033      -0.88964908
Cl      -2.60517087       3.36199703      17.79623239       0.18735190      -0.19025040      -2.01900481
S       -2.73027461      14.20421433      11.59333024       0.90680211       0.34588421      -0.78968061
S       -1.49095373       5.05673891      24.38254998      -0.01849783       0.44391391       0.60919529
S        3.29951771      -1.96273311      17.39055165      -0.19725042      -0.01295273      -0.84615508
S        4.36812604      -0.27673689      23.50900079       0.17240601       0.88062330      -0.08447490
S       -2.61904617       2.64924315      11.67274435      -0.78833579       1.39288892       1.36545845
S        0.76565919      -0.77853384      15.09442530       2.04984177      -0.05705323      -0.87278200
S        5.90452107      12.94893721      20.02792078       0.02376028       0.38009838      -1.46062729
S        7.62091483      13.13501740      14.53351323      -0.40596543      -0.02605600       0.75320939
S       11.67060256       0.04822890      24.33744157       0.94717503      -0.32904025      -0.25116344
S       10.95538359       7.26266453      10.70135843      -0.26301835       0.64242337       0.15132845
S       12.58946544       5.45504187      15.07986470       1.57180479      -1.03444808      -0.19505269
S       12.20990141       0.20559645      17.12518916      -0.12317481      -0.44216231      -1.78254345
S       12.85236421       1.60027459      15.75034722       0.34015667       0.59825480      -0.34496638
S       11.92822170       5.49194499      19.07986073       0.23198680       0.87005058      -0.36598216
S       12.98379051       3.78461112      19.77642673      -0.73829289       0.12860198       0.67488749
S        8.87957656      -1.04493324      14.92768267      -0.29151143       1.07488390       1.07294177
Cl      -6.43872030      10.98604095      17.84378875      -1.20176248      -0.01381459      -0.03720468
S       -5.26898513      14.05916751      14.79092643       2.26633107       0.62568343      -2.13091139
S       -4.31298055      13.81792263      20.63885098      -0.40960068      -0.48009337      -0.81530601
S       -6.81686622      11.39183218      22.01573821       0.11689074       0.17870763      -0.77096923
S       -1.20484392      12.87362651      20.68349238      -1.31359726       1.45156812      -0.95089606
S        2.48034053      13.46707609      19.95172909      -0.37127900      -0.25520548       1.20607809
S       -6.82186052       7.42929328      10.84352379       1.83529503      -2.85467127       0.82654477
S       10.71246970       6.23997363      14.95102012       1.27404223      -0.16841209      -0.26255446
S        8.11036061       7.55577063      13.54617435      -1.04696464       1.09947570      -0.87109246
S       10.61267988      10.30323717      13.01493998      -0.98586257      -0.82593865       0.11244261
S        7.30633079      10.97806148      14.63463576      -0.51276975      -1.22817465       1.59437193
S       11.04887667       9.62261326      23.06816921      -0.70256344      -1.75893524       0.33338237
S       10.09647796       8.49528328      24.56228736      -0.03106023       0.62878751       2.78668060
Li      -6.55005211      10.71965579      10.12334105       0.35860590       1.01325316       0.54519072
Li      -0.66647559      12.04064212       6.11263563      -0.14215471      -0.48705755      -0.14155174
Li      -5.89712819      12.99648455      11.05856880       0.51648616       0.55621993      -0.07591898
Li      12.98363818       2.63879457      10.56135254       0.47956400       0.13782253      -0.16109912
Li       3.37363082      14.38377572       9.77203970       0.41311647      -0.19950218       0.34625933
Li       8.21026197      10.06956295      12.53416559       0.17310714      -0.90570898      -0.21711504
Li      -3.74906740       1.12429224       8.83689699      -0.34139635       0.07813027       0.31778219
Li      -4.73306804       4.01088205       7.34908894       0.96570957      -0.37378268      -1.22271168
Li       0.35625978      -0.26461109       9.06783638       0.03065814      -0.40627273      -0.14332260
Li      -7.70316702      12.61082028       8.43673421       0.11966166       0.09708470      -0.11698085
Li      10.86681173      -0.86739816      10.80594154       0.14699019       0.29230194       0.47556048
Li     -10.90340078      11.84341903      10.39487297       0.45180682       0.20475405      -1.03294381
Li      -8.56424325       8.76120403       9.42181782       0.15009267       0.43626249      -0.19194119
Li      12.39652888       5.41757572      10.67746115       0.42015730      -0.35369798       0.28295144
Li      -3.65088395       4.54916712      12.46140222       0.17240272       0.24414822       1.06138998
P       -3.23957589       3.65352136       9.83445114       0.85095285       0.22020402      -0.11753181
Li      -5.04717308       5.88337759       9.86323962      -0.07691229      -0.36238221       0.05163806
P       -5.96554103       8.31566709       9.04612377      -0.56445603       0.85082117      -0.06821158
