279
Properties=species:S:1:pos:R:3:momenta:R:3 LayerForceGeomOptConstraint=T E_ref=-1065.2090334117997 step=2000 pbc="F F F"
Li       4.20858353      13.36152064      18.30176980       0.08140449       0.16550390       0.18597248
Li       6.71819437      11.74055702       8.08941213      -0.34887819       0.79849556       0.53566528
Li       2.64879201       1.24506393      12.68377361      -0.13179652       0.06564864      -0.41430690
Li       4.05240692       5.99698100      21.95979049      -0.20868766      -0.13511676      -0.21155713
Li       1.16653962       7.40411210       9.55220989       0.10868975      -0.22369195      -0.46080167
Li       8.14582812       2.86056518       9.58469637      -0.55746116       0.61606948       0.36093284
Li      11.79016434       0.23513824       7.64833150      -0.79397823      -1.18005138       0.27154992
Li       2.21559727       5.16685503      10.80757922       0.91325763      -0.14501461       0.17821642
Li      -1.92961741       1.94857893       5.56329618      -0.26903795      -0.58252631       0.49680477
Li       6.89939645      -0.26270466      10.24437308      -0.35882301      -0.38612314       0.44127628
Li       5.75684657      12.19302626      11.21887567       0.55324987       0.61120995       0.16901962
Li       0.45342647       5.84955168       3.86945020      -0.00307639      -0.69411767      -0.08928132
Li       3.23692719       0.36344544       5.61521885      -0.03202120      -0.03218379      -0.15440553
Li       2.74264030       0.75232363       9.99644826      -0.15658258      -0.18805062       0.19673118
Li      -2.12030231      10.48299653       8.75710976      -0.49107686       0.17938948      -0.25430259
Li       0.60225564       1.91756743       6.38616589      -0.16186744      -0.54817264      -0.10729491
Li      -5.33246763      12.94340743      22.32772579      -0.18951952      -0.14440537      -0.81849954
Li      -0.76955087      14.07092376      10.08991050       0.25690931      -0.85881988       0.59881115
Li       8.20989649      -0.64021791      13.00008111       0.26830035       0.14021001       0.14502558
Li      11.26067507       5.86504182      21.64137955       0.06348945       0.05729532      -0.64060586
Li      11.18981744       4.90952643       9.42403708      -0.75290600       0.68950746       0.44557651
Li      -1.13788613       3.41206555       7.68996798      -0.08079514       0.44938995       0.17358761
Li      -5.44540099      10.55548461       7.84368676      -0.16865749      -0.21678179      -0.52645077
Li      11.73261424       5.85323804       6.85270030      -0.41751254       0.52998208       0.62232947
Li       5.21662213       2.11773775       8.87170851       0.00097202       0.03753493       0.10606200
Li      14.52200958       0.02470421      11.32823953      -0.26145068       0.51831095       0.66458749
Li      -7.79829263      11.00962623      12.57844761      -0.07637640       0.32747676       0.25968373
Li       4.08869633       4.23899331       8.39763197      -0.48336456       0.72685016      -0.56020581
Li      14.17251813       2.02886170       8.44672405      -0.61046644      -0.57926787       1.31780284
Li      10.73262214       1.66912147       9.98637807       0.25490488      -0.37608154      -0.12038322
Li      -3.38978613       7.52843879       9.36206689      -0.11040351       0.59885401      -0.23428778
Li       8.57661243       4.06961631       7.05699894      -0.20078350       0.15334207       0.16143594
Li      10.07262346       6.53505197      23.70160208      -0.19171866      -0.50265381       0.28298131
Li      10.21087307       9.54306391      10.77728279       0.03033615      -0.34618666      -0.06370859
Li      -3.84388095       9.36666669      11.48156331       0.40899752      -0.38519979       0.05755855
Li      -2.49689150       9.89834605      22.34958243       0.31726873      -0.11537855      -0.51375863
Li       0.44636540      11.28359701      12.04620884      -0.35458716       0.44475588       0.22695021
Li       3.85699086       7.46251910       9.24940770       0.62744229       0.13693443      -0.54045731
Li      -0.13588821       6.16719979       6.98985256       0.07123197       0.38972344      -0.40680715
Li       0.94509722       9.29467400       7.66289844       0.57451007      -0.56320768      -0.68975624
Li      -3.70147110      12.72124626       7.25723457      -0.84749247       0.11191791      -0.82834195
Li      -2.97612283       8.95043494       4.54128905       0.00867050      -0.12139498       0.33078086
Li       5.60815648       4.94925557      10.74516418      -0.58485314      -0.62076812      -0.03701481
Li      -3.96253621      12.60046460      13.65566488      -0.80420939      -0.51099524       0.25098551
Li       2.99831351      11.88352985      10.42656704       0.70704435      -0.20592828       0.15662599
Li      -0.98020430       8.58664591      11.04720656       0.72227671      -0.15762893       0.18391235
Li      -1.98707092       5.69413004       5.27547370       0.17004339       0.68407441       0.17217678
Li       1.06717873      12.12778312       8.65453995      -0.06176899      -0.73639272       0.36107901
Li       1.33466065       8.03722577      23.42531844       0.22250848       0.51151347       0.36233566
Li       1.53971545       3.21509773       9.44362694       0.33970473       0.35535648      -0.45030009
Li       3.82554406       9.08534797      11.87153941      -0.02763901      -0.25788361       0.19650948
Li       9.39042264      10.77205676      23.75796465       0.16724077      -0.26409885      -0.93832345
Li       5.01564589       9.57807803       8.71538204      -0.00957603      -0.29805096      -0.52053509
Li      -4.81909737       8.04706330       6.85847146       0.22318684       0.91849606      -0.38949969
Li      -2.13678846       8.19397436       6.71021077      -0.24477471      -0.33332838      -0.06110740
Li       3.38002729       9.36582213       5.73058274      -0.06075742      -0.07865289      -0.08543826
Li       0.60036013       9.64907333       4.63168026       0.05101908       0.12444352      -0.20875541
Li       7.53766722       5.95424132       8.41374482       0.38668502       0.12206081      -0.31963886
Li      -1.58194958       6.14746223       9.68654513      -0.49299705      -0.36607490      -0.07244054
Li       3.69227891      11.71409479       7.28436898       0.14411368       0.20226940      -0.16446218
Li       7.42697985       8.56493761       7.10518378       0.88590937       0.32162671      -0.48335851
Li       5.58639014       7.17841781      13.11326362      -0.71735217       0.42306260      -0.70189474
Li       1.93519264       4.10727708       6.66039059       0.74497329       0.07954754       0.50722780
Li       9.17557010       7.73583264       9.06134442       0.40286800      -0.70792228      -0.34286445
Li       2.94671652       2.76714983      20.51965039      -0.25424583       0.10311589       0.45661083
Li      -1.92199095       5.43479776      18.57496303      -0.56195301       0.40007104      -0.40740675
Li      -3.12170353      13.35500314       9.52326367       0.25018297       0.05981270      -0.10309582
Li      -0.27973814       3.25394119      23.92474156      -0.37047041      -0.54195949      -0.43315204
Li       5.74564590      -0.80109604      18.74201943       0.39133899       0.27147896      -0.34201644
Li      -0.37567653      -0.09377083      13.15818082      -0.18049984      -0.15392463      -0.04694684
Li       2.66931111       1.39153753      23.56688143       0.22913451      -0.14736405       0.15987661
Li      -1.87617213       1.24639923      16.97181153      -0.77915690      -0.02926647       0.59925025
Li       2.28922829       3.97576000      16.91944409      -0.32610889      -0.25264978      -0.07934813
Li       4.00480761      -0.14580675      15.74830150       0.70693274       1.14530053       0.10711215
Li       5.42551592       4.15167903      20.31755306      -0.56072572      -0.49426633       0.45539241
Li      -1.17625706       1.25504412      10.15695837       0.04693025       0.20267960      -0.62259165
Li       5.29359371       1.75957061      22.72654273      -0.30057635       0.16460670      -0.09793738
Li      -3.97754043      15.59641927      13.23847373       0.33324721       0.62592704       0.07021796
Li      -0.11154119       3.15251075      18.53801627      -0.36411984      -0.21683623      -0.15466493
Li       2.49447971      -0.12818689      18.53012569       0.93542275      -0.17766719       0.24955048
Li       2.59970059       4.28678510      24.14430421       0.14467598      -0.38504869      -0.25301027
Li       9.12676674       2.40992300      12.54887826       0.45226456       0.58349104      -0.08161565
P        0.69956053       1.01360088      15.59937435      -2.38544378      -1.05935012      -0.76147039
P        0.26728696       5.33791283      21.57380393      -0.36654141       0.30103459       0.08064893
P        3.99641309       3.06282765      11.11729941       0.03444292      -0.48682772       0.25468472
S       -0.85777021       2.18829725      14.82370932      -0.80562779       1.46080272       0.24481609
S       -1.52908659       5.95318954      20.86042942      -1.19198502      -0.64973032       0.56984559
S        1.98147403       5.50597805       8.53192057       0.68715845      -0.49564182      -0.09427598
S        2.38213915       1.92948241      14.98364005      -0.92620858      -1.11905905      -0.13529600
S        1.73309167       6.78663540      21.01569179       1.33308289      -0.63522975       0.26536158
S        6.43667108       3.96339212       8.34655573      -1.84866770      -0.18846994      -0.94418047
S       -3.22778044      14.11349575      15.66376672      -0.84924121       1.65764388       1.17717479
S        0.30429734       3.29233552      21.25723504       0.27480783       0.58233771       0.93848250
S        2.54965534       1.80461727       7.50175204      -1.39000044       0.29556344       1.41869107
S        0.46929732       1.10537248      17.67838021       0.74265753      -1.05753329      -0.63378816
S        0.29199813       5.73372180      23.70892949       1.15662747       0.80235034       1.10545215
S        4.77415201       0.95439486      10.81747103       1.15629823       0.85033008       0.48173663
S        4.30916643       3.86010549      22.65876549      -0.82714661      -0.17574493      -0.83814332
S       -5.42734630      10.87910828      12.70226550      -0.11799558      -1.96689401      -1.11031738
S        0.28954145       5.22793042      17.49561386      -2.17853735       0.62613586       0.37013976
Cl       1.37393254       2.41295557      24.92155427      -1.33679955      -1.35175325       0.36710860
Cl       3.79751829       3.83255218      18.50559460       1.46596742      -1.33410093       1.06759072
Cl       0.68836778       5.02402411      12.59685251      -0.40273312      -1.74691323      -1.34301382
Li       9.28581451       0.01053186      23.58175100       0.04397251      -0.02225884      -0.83670846
Li       5.51323967       5.84028747      17.95815211       0.46198910       0.05877156       0.10187463
Li       9.49888296      11.99172547      14.15497451       0.74632425      -0.70488329      -0.00868624
Li       6.64747275       4.06963866      23.59786834      -0.35956219      -0.07260410      -0.68892890
Li       7.66252517      11.87480110      17.31560077       0.46308788       0.51513324      -0.05869772
Li      11.70460392       3.58506864      14.05155387       0.25637830      -0.47214387      -0.30605809
Li      11.70182870       2.36429602      24.08756881      -0.05166268      -1.08475061      -0.53805776
Li       7.90608141       3.32508019      17.53209813       0.37573889      -0.34585500       0.76119251
Li       9.63014517       5.49784968      12.67276157       0.21766176       0.16538309      -0.69435817
Li      11.00232968       0.32783824      14.90007065      -0.05071465      -0.26084210      -0.08921021
Li       9.50321156       5.20484215      18.89705336      -0.23437136      -0.06007281      -0.06696032
Li       5.95514329       2.30459306      12.84737411      -0.65215002      -0.66481555       0.35957404
Li      11.60937377       3.02275960      21.20717879       0.10027701      -0.27325319      -0.12954557
Li       2.03067620      13.56759103      12.83348304       0.02414104       0.03402664      -0.29715423
Li      12.05682159       2.52119411      18.62920231       0.21513650       0.22325968      -0.07704101
Li       9.81251576       0.67517354      17.53763882       0.08412075       0.30866203       0.51695976
Li       8.78933502       2.82414654      22.56317314       0.33444394      -0.19448978       0.17156016
Li      -0.10576722       2.93291223      12.62926053       0.37120107      -0.15947983       0.05112440
P        7.70369519       0.42634793      15.63365139      -0.29854686      -0.31121475      -0.16436891
P        7.45681917       5.97758188      21.42132385      -0.87846903       0.03695795      -0.37736102
P       11.92331185       3.11811643       7.16328612       0.22210796       1.14968634       0.43117956
S        6.11617083       0.15559331      14.24215434       2.05261581       1.39445871      -2.05599899
S        5.81089965       6.77463638      20.37608810      -0.95372195      -0.54875416       1.02228802
S       10.15330108       2.07026890       7.71927402       0.04289002       0.05528047       1.53834791
S        8.52341851       2.19614680      15.06894531      -0.23594020      -0.21254017       0.25852111
S        9.16273384       7.06111238      20.76832701      -1.04657895      -0.36112664      -0.34669370
S       -0.25620546       4.07823474       5.54775947      -1.60485267       1.12260400       0.44622031
S        0.44984148      12.39401874      14.12482742       1.36171057       0.18987035      -0.52579314
S        7.59914580       3.98756964      21.02792412      -0.25905057      -0.45146263       0.43159879
S       13.03049205       0.58122324       9.65771562       0.55903979       0.19923537      -0.43839853
S        7.19220486       0.73070702      17.61352453      -0.90347227      -0.66086872      -0.99447655
S        7.45675257       6.31310561      23.43930497       0.48706557       0.12175928      -0.04302846
S       11.12873174       3.37859758      11.70271233      -0.48091618       1.50147728      -1.16218504
S       10.61289681       4.25542975      23.15973837      -0.41914962       1.06457304      -0.51157777
S        9.00562541       0.47943203      11.06027760       0.51498799      -0.76440771       0.44765080
S        7.77826889       5.63527472      17.65017077      -1.21950444       0.04810832       0.11698102
Cl       7.39729260       1.75037442      24.07054249       0.90975696      -0.08948768       0.92450471
Cl       9.77125211       2.87873440      18.58481923       0.30871768      -0.10705650       1.31437067
Cl       7.40399821       4.13619272      11.79510074       0.03697136       1.06654532       0.09183545
Li      -1.84166711      11.59299459      18.26220243      -0.19396726       0.42310540       0.19771928
Li      -5.78670303      11.53607190      19.59021671       0.24205346      -0.26248466       0.07414592
Li       2.12799765       7.15934153      12.68572294       0.83035978       0.31990679       0.57862878
Li      -5.49827841       9.67816487      22.42229659      -0.36173411      -0.37004975      -0.50982642
Li       1.91830707       6.15502874      18.69308298       0.63291149      -0.24237582      -0.08197827
Li      -3.70452264       9.79070718      14.18645803       0.54128480      -1.26972815      -0.08722988
Li      -2.63347897       6.48294504      22.89768421       0.62558143       0.58975978      -0.69072175
Li      -4.39110060       9.61655806      17.29050570      -0.72621679       0.86430224      -0.08525281
Li      -1.46817816      13.43694186      13.75788649      -0.04233698       0.21210340      -0.12265099
Li      -1.38232412       4.27973291      16.33996825      -0.27997751      -0.28562627      -0.05875140
Li       0.98344492      11.40083860      20.24172305       0.34303158      -0.59213691      -0.82568148
Li      -5.56703804      12.22023487      15.97730162       0.48434797       0.33034950       0.28658967
Li      -0.35304993       8.14101580      20.79452041      -0.00711315      -0.35231101       0.18375374
Li      -1.48271591       6.48547980      12.96133150       0.97312083      -0.00089184      -0.80685501
Li      -0.77465167      10.98154997      15.52777987       0.31176153       0.05212418      -1.19086958
Li      -0.11912783       7.68901986      16.99719481      -0.50101364      -0.18840805       0.53653085
Li      -0.69489978      12.18240057      22.58015348       0.20574240       0.38347546      -0.13355488
Li       5.32553893      12.41131921      14.80061078       0.27353676       0.33201565       0.17176637
P       -3.15146676       7.36626967      15.35456086      -0.89958411       0.88320945      -0.76603536
P       -2.92410585      12.48720813      20.93567382      -0.80743874      -0.24356336      -0.15537505
P        2.48173877       9.60854217       9.46455807       0.50309525       0.44360687      -0.32647758
S       -5.05310238       8.01590662      15.14561792      -1.39034247      -0.86908471      -0.64323128
S        3.42832519      -0.28664713      21.95567230       2.29550129       0.44875025      -0.11803044
S       -0.79957773       8.15622665       8.65956936      -0.43664262       0.36769334       0.66819048
S       -1.69529354       8.69195210      14.32446739      -0.00825757      -0.91396582       0.15714122
S        4.21048058       0.78178225      20.37766158      -0.12887097      -0.15105932       0.63908129
S        1.54657070      11.02425873       6.19903353       1.16270029       1.46994972       0.27475455
S       -2.76657874       5.39861035      14.80518232      -0.84708129      -0.64903762       2.74617172
S       -3.40528708      10.58142307      20.11272053       1.19476061      -0.60248316      -0.36824180
S       -0.80593114       7.90216427       4.74502029       0.64453693       0.05373502      -0.29786755
S       -2.57504275       7.62498126      17.31539614       0.37299790      -1.36521121      -0.37320275
S       -3.04686175      12.41176869      23.02097601      -1.25427367      -0.85349033      -0.29773705
S        1.46388062       9.19181526      11.29686475       0.92205843      -0.10043528      -0.12599349
S        0.12417534       9.95744572      22.51059967      -1.26506533      -1.05560756       0.95711674
S       -3.27790809       6.86539137      11.42701926       0.81952869       0.04792456       0.10714350
S       -3.04365072      11.56494240      15.86553147       1.30210502      -0.04302994       1.24300174
Cl      -3.91085430       8.31827083      23.52866689       2.17099866       0.71990252      -0.28338513
Cl       0.16891243      10.46984563      17.72787462       1.04821752       1.94949156      -0.98747806
Cl      -1.87981164      10.56861632      11.11998094       0.45364509      -0.16662999       0.78150480
Li       5.27247834       9.06590466      21.51137774       0.21001974       0.03723490       0.02150043
Li       1.51443278      12.89244622      16.43160757      -0.01307198      -0.02902641      -0.20694986
Li       8.20638510       7.20596899      11.43101543       0.12365540       0.17912883      -0.02782608
Li       2.39654851      10.29285453      22.76791231      -0.21411585       0.29271577       0.05149997
Li      12.20976751       4.73357977      17.07854314       0.76945541      -0.56874821       0.07418890
Li      11.31220173       8.19053276      13.06234953      -0.49581383       0.49199554       0.28777256
Li       6.32299930       8.34028523      24.11382529      -0.09667181       0.07860019       0.23431218
Li       2.73562884      10.31943797      17.84106368       0.44894353       0.25359785       1.21680292
Li       8.99424680       9.15173941      14.99435268       0.45176995      -0.03918079       0.24970076
Li       7.19659072       6.06478714      15.46396262      -0.32661821      -0.49760333      -0.24600109
Li       7.07825677      10.73025107      20.37830218       0.01667938       0.18753938       0.33532034
Li       2.45212020      10.82351941      14.54571939      -0.16309525       0.56272436       0.43599846
Li       8.74527837       8.38748561      22.74716443      -0.33716411       0.29225137      -0.61413775
Li       3.36995987       4.43650115      13.28984451      -0.22851148       0.01930741      -0.18341261
Li       5.23170701       9.71056249      16.26037777       0.03210976      -0.14949735       0.51917579
Li       7.77278926       7.68891844      18.65681874       0.69446656      -0.61803028      -0.71233185
Li       5.77158530      12.06167119      22.66563711       0.30681415      -0.77185936       0.14589801
Li      -5.33600282       7.42800951      12.69471434       0.19143580       1.14478743       0.19407365
P        3.61574362       7.48510738      15.40781012       0.70514830      -0.62900297      -0.82906590
P        3.68236366      12.55043010      20.89306912       0.91457624       0.56547313       0.59090063
P        7.46846572       9.85353432      10.10856243      -0.76821892       0.96428998      -0.01468525
S        1.57271973       8.00086848      14.99081052       1.89549118       0.74905450       0.30207238
S       10.34418147       1.08097216      21.33946466       0.52917781       1.72014220       0.33849363
S        5.40484295      10.22485238       6.49193084      -0.69752440      -1.06475073      -0.54153340
S        4.54889485       8.79175466      14.22007274      -0.22748462       1.85595209       0.12485734
S       11.81960250      -0.05463735      22.24021053      -0.54438419       0.84426938       2.21615090
S       -3.66300273      10.15363744       6.48843808      -0.47619670      -0.47586796       0.49519463
S        4.18215045       5.51344699      15.25012896       0.63464142       0.02026184      -0.04847299
S        3.62382699      10.45052547      20.35918524      -0.35392121       0.03835056       1.18040356
S        9.48313848       6.28365321       7.26014253      -0.63421644       0.80255072      -2.16702015
S        4.01232584       7.90950562      17.32772639      -1.24412493       0.62912333      -1.45739690
S        3.55746246      12.75037639      22.89659262       0.49737173       0.76571869      -0.64704246
S        6.71092429       7.73516529       9.48907907       0.29290928      -1.90240709       1.33773424
S        7.15384081      10.20124869      22.72948754      -0.17700083      -0.59172494       0.21607628
S        4.05213447       6.31770232      11.53225194      -0.95989382      -0.18619875       0.38133053
S        3.69452220      12.01724480      16.52401978       0.05753333      -0.61027025      -0.79338965
Cl       3.89813168       8.33186285      23.24556053       1.57565971       1.40403355      -0.98104229
Cl       7.16894509       9.87915217      18.41040698       0.12591049      -0.33616170       1.34975953
Cl       4.06769960      11.87712763      12.82550401       0.56140344       1.28836152      -0.89532629
S        8.96567845      10.28259756       8.75920296      -1.33477216       1.24474289      -0.90249728
S        0.85908624       1.07163765      11.23506436       0.08103591       1.53641236       0.08401580
S        1.30284230      13.45484395      10.68438662       1.94483902       0.43740644      -0.06193035
S       -1.23762913       1.17593393       7.77977528      -0.89851316       0.10195562      -0.80778011
S       -8.66447111      11.26583016      10.43491389       1.10686639       0.43002502       1.94334433
S       -5.25265657      12.57371686       9.01350091       0.39614933      -0.48126231       0.67509942
S       13.19667580       4.37986769       8.44577819       0.40691881      -0.06579999       0.66954284
S       -1.43249932      12.93198508       8.03424875       0.03663902      -1.18781623      -0.75801988
S        4.85037747      12.82286694       9.15684154       0.32594119       0.12247054      -0.07809108
S       -4.92846991       3.25300906       9.28932544      -1.25950733       2.06610764      -1.69505645
S       -3.48339137       6.23571306       7.21488738      -1.25567091      -0.66340012      -0.36395183
Cl      -2.54265303       3.15950334      18.26010267       1.11929234       0.38341714       0.69147368
S       -2.67800109      13.87709972      11.74225514      -0.85138899       0.61947827       0.74182880
S       -1.36937753       5.21174424      24.77320145      -1.16898782      -0.52084797      -2.06090073
S        4.00769858      -1.58716976      17.62427688      -0.37242654      -1.21067988       0.91070779
S        4.39578066      -0.10181966      23.69759051       0.64636255      -0.77820678      -0.33024656
S       -2.54539303       2.43017778      11.58368065      -0.36772453      -1.36032235       1.11812403
S        0.75809428      -0.95787588      15.10219773       0.28104497      -0.52684293       0.18436760
S        5.60002845      13.14575992      20.32744926      -2.47396525      -0.74296364       0.21658295
S        7.61905745      12.70646667      15.18868728       0.06750570      -0.78040487      -0.08685089
S       11.42000150       0.03417573      24.39047044      -0.48238452       0.98878267       0.94852988
S       10.61004098       7.10213993      10.95359008      -1.54370716       0.62199553       0.38339133
S       13.35550443       5.44506612      14.65284901       0.08695670       0.91638621      -1.60032209
S       12.09317216       0.54349375      16.97556702       1.09402359       0.54250832       1.08294268
S       12.54292989       2.30892815      16.06528268      -0.08522822       0.61865081      -1.10432485
S       11.99440885       5.57456709      19.36415286       0.40906203      -0.06860011       0.29243035
S       13.25418923       3.96360932      19.65698776       1.64281973       0.35666439      -0.55103214
S        9.03272562      -1.11712754      15.27441519      -1.34998104      -1.29915469      -0.18376428
Cl      -6.36563037      10.66579977      17.36591838       1.00993959      -1.82577683       0.21193861
S       -5.21755760      14.43137811      15.13173998       0.37692402       0.74340713       1.97361103
S       -4.30891347      13.79935136      20.48914364      -1.31262628      -1.78811548      -1.44553406
S       -6.74503970      11.28132547      21.66389900       1.61517001       0.20688585      -1.20432366
S       -1.03316087      13.01682067      20.24268142       0.68867299      -0.19197907      -1.86535799
S        2.19882034      13.39212023      19.82895307      -1.78993456       0.39660051       0.72033949
S       -6.95097356       7.34331133      10.74303055      -0.22637646       0.40333614       0.66677561
S       11.31609483       6.14725774      14.68474958      -0.79060426       0.91064966       0.32794064
S        7.89637966       7.38390309      13.79143365       0.90381465       0.06774811      -0.51217775
S       10.21018675      10.21246855      12.95778469       0.76190239       0.34754354       1.00763437
S        6.88280283      10.76925799      14.72546762       0.11853845       0.30007361       0.63506259
S       11.11544002       8.70879809      23.23006149      -2.21341166      -2.66881984      -0.46871804
S        9.74642429       8.52393998      24.94018217      -0.56366726      -1.89194453       0.18313248
Li      -6.07155937      10.85062117      10.42530229      -0.44202829       0.37931492       0.04945974
Li      -0.91835178      11.70590083       6.31998140       0.45352316      -0.27240403       0.24793940
Li      -4.80732781      12.97055474      11.28988346       0.45147212       1.07344199      -0.48834377
Li      13.07018534       2.76308752      10.89256416      -0.28381631       0.41416855      -0.08856287
Li       3.02189268      14.33495135       9.34598822      -0.04025431      -0.05589066      -0.70964899
Li       8.01516237       9.82629567      12.84273800       0.40702880      -0.02315945       0.13300552
Li      -3.52803649       1.48424515       8.18250062      -0.27025264       0.63637388       0.00128816
Li      -4.86560026       4.67901708       7.33580217       0.10637989      -0.00260675       0.89428974
Li       0.74768402      -0.02940381       8.37447708      -0.33544725      -0.05725369      -0.90826367
Li      -7.52351815      13.20638930       9.43600663       0.32040859      -0.18490963       0.30672582
Li      11.14475107      -0.75940126      11.26914661      -0.22473439      -0.35818178       0.51836530
Li     -10.92909815      11.80193178       9.91091219      -0.77248029      -0.01258953       0.82069061
Li      -8.46622125       9.04045797       9.64663893       0.48122069      -0.59125418      -0.14695921
Li      12.36428100       5.64998508      12.41502829       0.32387155      -0.48395278      -1.11889160
Li      -3.77608373       4.49178324      12.69447706      -0.01759589       0.74019744       0.48564153
P       -2.97325321       3.69034840       9.91919919       0.08693066       0.21674630      -0.54717484
Li      -5.16734055       5.67732942      10.53016613       0.29996440       0.15435040       0.62284873
P       -5.88378722       8.48174831       9.43856244       1.39314238       0.55779189      -0.40205737
