279
Properties=species:S:1:pos:R:3:momenta:R:3 LayerForceGeomOptConstraint=T E_ref=-1070.9753403501293 step=3300 pbc="F F F"
Li       3.42290478      13.36071033      18.65613541       0.79568601       0.69893669      -0.65398640
Li       7.01376615      11.21560687       8.06339786      -0.03309130      -0.43014301      -0.21026082
Li       2.36513791       0.89897269      12.30170829       0.37262581      -0.39643010       0.33034949
Li       3.69393118       6.06063453      22.92374859      -0.27667920      -0.38026330       0.21009176
Li       1.96076327       6.94795958       9.28238592      -0.38806740      -1.53511571      -0.18215233
Li       6.80232944       2.10598263       9.36428533      -0.08074752      -0.45279342       0.62859050
Li      12.84278867       0.46390947       7.33465166       0.29703199      -0.28077774       1.03232680
Li       2.65879582       4.56966301      10.57410772       0.05538469       0.20014292       0.09142197
Li      -2.52310849       2.18527432       5.33420162      -0.17003368       0.25263464      -0.37647598
Li       6.56302396       0.14147084      11.68013228       0.36285473      -0.83160273      -0.04906321
Li       6.31184150      12.07994753      11.06075716       0.70305171       0.12024733      -0.48337945
Li       0.61000741       5.27365964       3.74762725      -0.64810840      -0.38985942      -0.02178655
Li       4.43647822       1.38245901       7.06382089       1.13277503      -0.31110104      -0.00707865
Li       2.50869570       0.47803695       9.43147502      -0.44221372      -0.52161511       0.17791077
Li      -0.57977509      10.96135520       7.99684758      -0.28931713      -1.21452455       0.08484243
Li       0.07533009       1.87002540       6.37375727      -0.07828252      -0.10938185      -0.20856758
Li      -5.32090448      12.94307314      21.52679978      -0.62552219       0.77228294       0.04703115
Li      -0.24493645      14.41669424      10.26755173       0.50890661       0.93308568       0.20930188
Li       8.50997713      -1.15637676      13.39345536       0.18598524      -0.10707660       0.06384403
Li      11.18202725       6.97849943      21.44307435       0.53117164       0.06568324       0.25690254
Li       9.87996854       5.16914924       9.33196537       0.41184865       0.46446475      -0.90143919
Li      -1.79861803       4.09362022       7.42078722      -0.07474214      -0.50251816      -0.43917281
Li      -4.48241098      11.00561016       7.73817459       0.52507507       0.14830379       0.09680772
Li      11.00187316       5.30667214       6.61480145      -0.28416311      -0.46460270      -0.01074322
Li       3.81570310       3.19796556       8.66278675       0.35034573      -0.30068014      -0.59182073
Li      11.31689521       0.51987833      11.66584020       0.71771892      -0.62302563      -0.58456457
Li      -7.01957708      11.53491527      12.76156261       0.01850914       0.05093788       0.02514975
Li       4.61604831       5.55910519       7.72777200       0.42416336       0.08153661      -0.19148359
Li      13.04550921       2.40209087      10.25397120      -0.31144598       0.69978410       0.16749974
Li      10.60475829       1.75348849       9.09933483      -0.07074501       0.00620956       0.04357791
Li      -2.50085231       9.16236773       8.93600836      -0.30667342       0.04676412       0.50170453
Li       7.87395579       3.70618492       6.38201788       0.30223400      -0.26254074       0.29941662
Li       9.80978757       6.42261319      24.09311695      -0.15249219       0.08323449      -0.33953293
Li      10.15554770       9.34868189      11.24249378       0.39715190      -0.11865959       0.23571235
Li      -2.82733255       9.73615134      11.95324791      -0.33370559      -0.08556597       0.53610294
Li      -2.37539805      10.05065274      22.63356865       0.00402948      -0.17357352       0.51326633
Li      -0.21084032      12.08524146      11.77828519      -0.07244087       0.37570321       0.71266519
Li       4.94043287       7.59796360      11.66104566       0.37361846       0.69701838       0.57958057
Li       0.49568464       5.92591496       6.46324274       0.35949755      -0.72631617       0.41060898
Li       1.85423886       9.72097688       8.43523713      -0.24691897       0.78248058      -0.27884240
Li      -3.18282858      12.98389007       6.82105254       0.02064940       0.04423688      -0.28990328
Li      -1.62248221       9.35597614       4.21629106      -0.62392024      -0.20821162      -0.30534995
Li       5.71868078       4.85012699      11.20223120       0.05414237      -0.53994785       0.45123338
Li      -4.69732726      12.21070995      16.66965553       0.24126355      -0.55584321       0.08475675
Li       3.60377842      11.80850798      10.21881428       0.15385954      -0.29896077      -0.34055558
Li       0.14533185       8.81504781      10.49221731       0.24822205       0.38955325       0.52360831
Li      -1.85526004       5.70075156       4.87366099      -0.17648378      -0.40523822      -0.06939045
Li       1.43209240      13.06757915       8.28571078      -0.60129494      -0.47819006       0.59165963
Li       0.75163221       7.99081089      23.63586130       0.02481714       0.38754025      -0.30033615
Li       1.05606493       2.75600038       9.14822288      -0.35879071      -0.12548044       0.80950905
Li       4.23032538      10.07655865      12.71849558      -0.12532230       0.03502562       0.64215028
Li       8.99187897      11.01457408      24.22416912       0.32996072      -0.44846925      -0.69573505
Li       5.42126813       9.02530743       9.37196225       0.17791121       0.64515249       0.53747192
Li      -4.18230502       8.09980590       6.37290401      -0.26556273       0.82554976      -0.50551978
Li      -1.62280801       7.82217889       6.66458945       0.21533487      -0.36082879       0.31870629
Li       3.63281742       9.62870426       5.58579062      -0.35005476       0.29617276      -0.13867401
Li       0.83926676       9.00270277       6.10733998      -0.02311936       0.43803151      -0.29730320
Li       7.12416981       4.91736271       8.47057721      -0.03478302      -0.57852096       0.13056992
Li      -1.37171872       6.27871992       9.19957098      -0.21629933       0.38151241       0.59460380
Li       4.31107386      11.66726352       7.34016175      -0.83232171       0.46468413       0.30111000
Li       6.93610518       7.73684155       7.45481594      -0.54478090       0.33067105      -0.43542905
Li       5.26662514       6.13510168      13.92777234       0.31616688       0.45602774       0.55823302
Li       1.87252690       3.46731963       6.47987346       0.00620851      -0.02108241       0.31640124
Li       9.56004395       7.62585324       8.69431612       0.01867901      -0.24144962      -0.41931903
Li       2.21880866       2.94326651      20.95939174      -0.22898427       0.02208100       0.10265636
Li      -1.83262007       5.90644334      18.63913435       0.35491013       0.20503160       0.35084995
Li      -2.65017499      13.79318605       9.31335765       0.49147205      -0.68859039      -0.45928812
Li      -0.97801290       2.38687933      23.56521590       0.17352943      -0.18666407      -0.42356416
Li       5.83767797      -0.44383850      18.52822183      -0.36443820      -0.06548321      -0.15495355
Li      -0.23220662       0.01860516      13.03592118      -0.05765212      -0.65172650      -0.08089917
Li       3.00603891       1.38887157      23.64312018      -0.32832682       0.62918085      -0.75112247
Li      -1.16874450       0.88917926      16.70615567       0.55167281       0.30626535      -0.25589962
Li       2.11610827       3.73860862      17.33146764      -0.24317876      -0.35283031      -0.45764100
Li       3.87538424      -0.56493128      15.65863342       0.04732545       0.58767979      -0.20507828
Li       5.08327451       3.53411298      20.73191830       0.58943005       0.59067445      -0.14602668
Li      -1.87981759       1.37275200       9.99327712      -0.13927032      -0.15849367      -0.10968165
Li       6.35622857       0.94879484      22.50783432       0.52224401       0.41246110      -0.36837629
Li      -3.05651968      15.11653838      13.06015808       0.32822275      -0.58456803       0.21850930
Li      -0.54758616       3.24291356      18.95898757      -0.38141536       0.82164804      -0.36209796
Li       3.17441944      -0.07635125      18.40007152       0.34686289       0.23931716       0.60146048
Li       1.82372850       3.85681524      24.06664087       0.04177867      -0.70376423       0.02246492
Li       9.29727811       2.12383903      12.38988486       0.30094708      -0.53840039      -0.64789487
P        1.30512035       1.17325086      15.46952888       1.41575973      -0.43901898       1.56121254
P       -0.25897807       5.38681874      21.75934093       0.59954931       0.22139261      -0.30783996
P        4.31396522       2.22677646      11.31581565       0.55619782       0.73822487       0.55195508
S       -0.53677740       1.83571467      14.61466239      -0.64758938       1.04289158       0.73101178
S       -2.00632999       6.36722530      21.09125785       0.42121539       1.69126219       0.82773835
S        2.20556522       4.89057508       8.24925350      -0.56840346       0.98579862       0.33982483
S        2.91221918       2.49723128      15.28948941       0.62569710      -1.74232389      -0.75553292
S        1.40048606       6.44858856      21.15281642      -0.18615343      -0.36649362      -1.94607585
S        5.62631276       3.37561480       7.43496261      -0.10984974       1.57213037      -0.58861871
S       -2.68856339      15.11777542      15.60010435       0.02327463      -0.25894278       1.23542640
S       -0.23113351       3.29062784      21.35696753       0.12604834      -0.63295200      -1.02819207
S        2.09443403       1.35226321       7.31175763       0.45476881      -1.13900403       0.32865083
S        1.13262219       0.76444575      17.46232847      -0.05367131       1.43663191       0.42061251
S       -0.27483942       5.47576484      23.81255003       0.49777888       0.43598388       0.75492514
S        4.90027046       0.56971825      10.09959179       0.23549027       0.33403674      -1.11164781
S        3.82339827       3.75020325      22.84456276       1.60094330       1.07939442       0.82451255
S       -5.00065060      10.81204334      12.36172561       1.58243993      -0.60436059      -0.94351840
S        0.00549289       5.08299785      17.47280447       0.16155455      -1.38696554      -0.31213362
Cl       0.95921381       1.85203933      24.77488659      -0.77694184       2.71066204      -0.02745160
Cl       3.57956176       4.14731987      19.07797126       0.97465516      -0.26634591      -0.64475802
Cl       0.30364704       4.96415259      12.40743054      -1.25994927      -1.54549598      -1.12415663
Li       9.39102621       0.76979563      23.64083695      -0.07235096       0.28486961      -1.65209918
Li       5.02031688       5.85335206      17.97961450      -0.38299762       0.15176311      -0.21913826
Li       9.63262761      11.47818681      14.79635485      -0.01780320       0.27270847      -0.17876773
Li       6.26637687       4.24760574      23.22411961      -0.11258718      -0.33784565       0.28215679
Li       6.04552979      12.28003760      17.84043297      -0.04893666       0.61358725       0.28505569
Li      10.28994715       3.64218482      14.54006272      -0.24600268      -0.79203671       0.65823361
Li      11.69963178       3.31386521      24.24774379       0.08079276      -0.70666575      -0.19874863
Li       7.13340345       3.83539522      16.57790551       0.48707366       0.16778095      -0.24580428
Li       8.90335377       5.27091279      12.09676941      -0.71228436       0.38339621       0.35678232
Li      11.49707251       1.19434382      14.52072944       0.18251918       0.87099303      -0.40776307
Li       9.50164648       5.45586262      18.77734112      -0.23159146       0.14430893      -0.15756866
Li       4.64837308       1.84275255      14.03480169      -0.09541613       0.12331559      -0.11612963
Li      11.63481490       4.27308003      20.94916097       0.28222233       0.54370144      -0.07747308
Li       2.46240708      12.68664577      12.66070396      -0.48740821      -0.77802477       0.53317299
Li      12.44024698       3.08984984      18.62424072       0.06189672       0.32700436       0.11601647
Li      10.02100671       1.00398085      17.74224401      -0.84704444       0.05671289       0.25531971
Li       9.24348763       3.32455989      22.58283235      -0.12938997      -0.21135554      -0.11644694
Li      -0.51563761       2.85160213      12.18841565      -0.32500654       0.46477786       0.48443701
P        7.64955355       0.98260108      15.29463019       0.97650953      -0.30272103      -1.66577386
P        7.35264624       6.24135342      21.76357078      -1.11530677       0.03790142      -0.86037077
P       11.75483946       2.79595958       6.70123184       0.98077971      -0.87231879       1.42434855
S        6.20001496      -0.02124175      14.25801818      -1.09951295       0.90184301       1.03466340
S        5.60524196       7.25533085      21.27172402      -0.72545143      -0.30691565      -0.43653887
S        9.96073986       1.86086582       6.83142205      -0.20464420      -0.07551464      -1.12046514
S        7.92922006       2.82984104      14.38492294       0.07392768      -1.08826616      -0.17950956
S        8.85619012       7.31014833      20.87464183       0.06314637       0.48939305      -0.18867114
S       -0.36336598       3.77508005       5.18492630      -0.97220863      -0.53168194      -0.28812184
S        0.90799556      12.02384920      14.19324436      -0.17800646       0.39192853       1.04577592
S        7.30582375       4.34599368      20.97745781       0.42435947       0.79068570      -0.79682598
S       12.29539616       0.05774964       9.59354364      -0.15193919       1.50594327      -0.15398191
S        7.03088195       1.46635178      17.18142320      -1.36262821       0.12143063       0.14423300
S        7.35155703       6.18025106      23.75609162       0.66970729      -0.22986753       1.45580541
S       11.83536177       2.73436919      12.57979660      -0.39041636       0.30313723      -0.73167511
S       11.33743408       5.08877150      22.89701407      -0.18775541       1.60658995      -1.29002290
S        8.79788172       0.05143131      11.29488109      -1.22442069      -0.20477299      -0.73427343
S        7.37717513       6.08898619      17.28922290      -0.17691817      -2.11057233       0.96166721
Cl       7.57337049       2.22068336      23.92030073      -0.58278581      -0.85228891      -1.30208427
Cl       9.93147545       3.07917590      18.92351936       0.28189622       0.70404412      -1.48710785
Cl       8.13863276       3.47884389      10.69147058       1.25538523      -0.38962737       0.58942141
Li      -1.69701705      10.61005288      18.09427588       0.35732952       0.91132632      -0.95299037
Li      -6.31614760      11.20107101      19.39242824      -0.91113783       0.32554350       0.17928670
Li       2.48096867       7.38162192      13.02573578       0.00540001      -0.36163233      -0.35281884
Li      -5.46040885       9.68812360      22.21607236      -0.50082149      -0.52067919       0.16236672
Li       1.99484562       5.79170618      18.54203457      -0.66155640      -0.28384962       0.38166546
Li      -4.09221385      10.60505112      14.42149179       0.28969315       0.01332754      -0.07569836
Li      -3.50900195       6.37114144      23.24432198       0.80750497       0.11283299       0.96165296
Li      -4.62207638       9.29114658      17.12092531       0.65006333       0.27543045      -0.28229543
Li      -1.86225338      13.04303789      14.30388526       0.78650780      -0.41635607       0.76950613
Li      -1.73902867       4.09985503      16.22974515      -0.83733532       0.31744910       0.02483831
Li       1.06808575      10.35864426      20.40492860      -0.53727018      -0.80383182       0.22967587
Li      -2.31908081      13.43255341      17.24141960      -0.26033846      -0.40065025       0.27907778
Li      -0.69012912       8.19666279      20.50895349       0.11476748       0.63461580      -0.39006557
Li      -1.59776421       6.58618151      12.83964347       0.58196586       0.02451617       0.60949898
Li      -0.81051741      10.27383739      14.98208771       0.28673121       0.19348136      -0.50944856
Li      -0.28818425       7.26402721      16.28397729      -0.25743341      -0.41697428       0.11498911
Li      -0.37302014      12.15208954      21.61484440       0.21620999      -0.07787066      -0.21244559
Li       5.32542086      12.52182264      14.91673550       0.29609679       0.80370477       0.22965997
P       -3.31858459       7.16281579      15.27342708      -0.38443096      -0.01293158       0.37063252
P       -3.01308342      12.02589700      20.12018862      -0.20746701      -1.53264693      -0.23202019
P        3.16858867       8.96149516      10.37667581      -0.14162983       2.05314094      -0.81589057
S       -4.94031857       8.34055237      14.62920201       0.09501017       0.00388678       1.16876267
S        3.53341924       0.11564955      21.68759209       1.62970424       2.41142599      -1.70081099
S       -0.05230270       8.07406406       8.24884323      -0.42714713      -0.30430879      -0.74163284
S       -1.64018660       8.03663795      14.53396205       1.67458868      -1.28249475      -0.83182602
S        4.89446658       0.98137602      20.29736317       1.16829327      -1.18137914       0.39873152
S        1.79129022      11.10140524       6.66304346       1.31092303       0.88342178      -0.37246488
S       -3.36947870       5.36030292      14.32264222       1.17580326       0.78554725      -0.10604832
S       -3.06294225       9.96978405      19.96629045       0.13931605       0.23596320      -0.57089018
S       -0.22143915       7.39885343       4.52520701      -0.83825446      -1.00013134       0.55642580
S       -3.44324788       7.13288564      17.27276220       2.14867820       0.79625591      -0.80483101
S       -3.03761996      12.37620159      22.17088266      -0.13291922       0.85255620      -1.23908752
S        1.96360131       9.46165485      11.96608809      -0.81128750       1.98109391       0.45575758
S        0.01329234       9.85524329      22.45117348      -0.13155459      -0.75505964      -0.07623879
S       -2.74618915       7.50244766      11.01439162      -0.06797243       0.57038737       1.28393746
S       -2.52244362      11.42776804      16.01908784       1.57141747       0.35623510       0.48630740
Cl      -3.93725614       8.58940344      23.57950482      -0.77863217       1.05419362       1.96103649
Cl       0.35935194       9.18695260      18.58967603      -0.11150950       0.85693907       0.23839346
Cl      -1.28542501      10.66868760      10.24554412      -2.03731010      -0.18403189       0.58236408
Li       4.96580918       9.11009233      22.99988853       0.23375070      -0.27967649      -0.03771357
Li       1.75975339      13.03853540      16.17998281       0.13138321      -0.43502472      -0.61100652
Li       7.84703632       7.34340217      10.95534887       0.15776403      -0.11280088      -0.39233465
Li       2.37495223      10.16452918      23.03102827       0.19190337       0.23283369      -0.72924921
Li      12.59944873       5.90254962      17.02896495      -1.00707183       1.43765146       0.47227704
Li      12.22545126       8.29144221      14.28718170       0.54682188      -0.01308692      -0.04957987
Li       7.65241732       8.66032712      24.31922542       0.38062058      -0.11293987      -0.96583089
Li       2.53952480      10.19361238      18.22231953      -0.19846788       0.06718847       0.58454459
Li       9.74380452       7.32942673      13.15163952      -0.10457212       0.98780212       0.21707225
Li       7.70870298       7.69238614      15.59615242       0.99414510      -0.38287775      -0.21174409
Li       5.94518855      10.64700276      20.70541392      -0.23223760       0.55166452       0.08697672
Li       2.38116154      10.25205382      15.02435659      -0.09687038      -0.24944199      -0.41309069
Li       8.89027966       9.50578680      21.95708611      -0.89565952       0.29715969       0.00791398
Li       2.32911674       4.59976531      13.68662304       0.15817409       0.74156706       0.77296117
Li       5.31376677       9.66194726      16.82179874      -1.01538146       0.36674976      -0.29350517
Li       7.21929476       7.92440504      19.03936658      -0.74740582      -0.55709817       0.45280458
Li       5.78499352      12.46145202      23.12611726       0.26491659      -0.17250040       0.40136795
Li      -5.18347099       8.24726975      12.16401427       0.34655736       0.39940679       0.63582310
P        3.41249473       7.51542891      16.01284128      -0.51494840       1.62885340      -0.01705487
P        3.45637068      12.30835779      21.24581621      -1.33958630      -0.85324936       0.57942112
P        7.50035520       9.78987646      10.50933301       0.50018681      -0.03910218       0.12504139
S        1.61415930       8.03378049      15.25805217       0.20182855      -2.00577893      -0.24904727
S       10.64949544       1.52392775      21.73391334       1.06581245       0.46809614       0.36373191
S        5.53534304       9.59149975       6.73032091      -0.80332927      -1.51044006      -0.70417709
S        4.74992893       8.47953354      14.80189997       0.29576711       1.28063153       0.63886971
S       11.69933416       0.58036717      23.26430637      -0.32219981       0.38136071      -0.54722936
S       -2.56458753      10.22832307       6.18892093       0.51889783      -0.64860039      -0.48090922
S        3.59214061       5.46118049      15.82856366      -0.15312434       0.30649719       0.62001645
S        3.63907166      10.15899798      20.83089246       2.19784204      -0.56978370      -0.19335981
S        8.86612275       5.78783235       7.23038844      -1.01422168       0.16133794      -0.56987551
S        3.62162694       8.10605226      17.92491132      -1.91899698       0.31551664      -0.04834461
S        3.31880762      12.33643135      23.30355083      -2.47755057      -0.40088961      -1.28068303
S        6.09781152       6.65172537       9.54298683      -0.39155196      -0.58966908       0.86101590
S        7.00757315      10.59680371      23.05091342       0.38301149       0.57385759      -0.06100765
S        3.77300059       5.67256912      12.29475355       0.65892518      -1.28885104      -1.05327971
S        3.60474668      11.82347523      16.75545031       0.83132613      -0.02116992      -1.59422956
Cl       3.05396458       8.08378772      24.08912001       0.93643558      -1.88434604      -1.63992580
Cl       7.04147415      10.10503881      18.82591921       1.74038271       0.71672400      -0.76983007
Cl       4.66357644      12.31135673      12.75554608       0.22779255      -0.42665836      -0.68442999
S        9.04106328      10.00688796       9.04222124       1.25011374      -1.19801518       1.58317550
S        0.46647364       1.02193680      10.71920417      -0.64382825       1.72491630      -0.10287891
S        1.92396148      13.47908952      10.64863855       0.85061087      -0.80397782      -0.14420842
S       -1.88740987       1.24933617       7.55216598      -1.17176110      -0.21353547       0.74148914
S       -8.10217200      11.76591593      10.76104884      -0.06504204       0.16551903       0.66834027
S       -4.74056587      12.99218986       8.97849584       0.21104199       1.09282309       0.76863111
S       11.97892135       3.84384938       8.58434926      -0.86360850       1.02225772       0.36054927
S       -0.90486353      13.58695420       7.82795955      -0.52204904      -0.07744942      -1.49758495
S        5.52589549      12.76425154       8.95853444       0.59178751      -0.82255436       0.33903625
S       -5.48788094       3.50959969       8.98572044       0.76941933       0.64603861      -0.32201450
S       -3.03944119       5.90981319       7.00736766       1.13826935      -0.56139832      -0.88101987
Cl      -2.35792067       2.37043130      17.87593920      -1.16073301       0.01476760       1.05759156
S       -1.91147105      13.69674995      11.77244772       0.37312462       0.73433585       0.28363042
S       -2.18958523       4.56230257      24.28090889      -0.49274591      -0.50706362      -0.81511360
S        4.08553325      -1.76377206      17.53445577       0.97899152      -0.16979041       0.45786788
S        4.65096345      -0.38852045      23.27339449      -0.46552608      -0.33877229      -0.19847516
S       -3.07281636       2.89060227      11.44822324       0.05882400       0.82961315       0.33695029
S        1.68280959      -0.56459543      14.44385161      -1.06102170      -0.56432304       0.59183932
S        5.11034571      13.20322575      20.51975935      -0.61495136       0.70716531       0.59612204
S        7.52347492      12.27689184      15.67058743      -1.45670458       2.12973239       0.76610135
S       11.23852127       1.22177639      25.15363538      -0.95173583       1.27873846       0.92694267
S       10.25430378       6.74339723      10.85374169      -2.36327862      -0.81118468       0.84090199
S       13.21698191       6.14333253      14.11796910       0.08145326       0.49899678       0.28129482
S       12.40861129       1.25228356      16.87961057       0.52346545      -2.41334827       0.70450016
S       11.89535495       3.24878630      16.31957984      -0.58724654      -0.51357107      -1.26383427
S       11.58267191       6.38156387      19.14155781       1.65906058      -2.94540741       0.30355772
S       13.25618282       5.19347483      19.51151351      -0.97949262       0.55074284       3.68989692
S        9.32842767      -0.12959668      15.36506716       0.17411909      -0.04016528      -0.17897152
Cl      -6.34173501      10.80839362      17.17976058      -0.07006529       0.35637550      -0.84189629
S       -4.48971789      14.17530431      14.94671841      -0.37315383      -0.83689647      -0.08689835
S       -4.36272103      13.27092816      19.16347030      -1.00368651      -0.51399918      -0.42627567
S       -6.79853520      11.30324523      21.66570355      -0.60334038       0.84574664       0.52204018
S       -1.23870881      12.68125085      19.35405312      -0.22025420      -0.88009168       0.79644488
S        1.67332893      12.58992849      20.15460221       0.20829862      -1.43439156       1.64447394
S       -6.77209441       7.64977244      10.02203436       0.46427668       0.31303771      -1.40729502
S       11.18646180       6.03758215      14.80112275      -1.25379981      -0.29441279      -0.54391428
S        7.47525557       6.83839458      13.26080615       0.29430745      -0.30929563      -0.21950570
S       10.42691918       9.59663987      13.67637038      -1.22585442       0.06751160      -0.84984233
S        6.90587189      10.28586002      15.19811297      -0.25804177       0.47478311      -1.96294551
S       10.96344289       9.55485716      23.37928933       0.07859764      -0.65667478       0.41125270
S        9.95088548       8.72122480      24.98856521       0.93699578      -0.34603806       0.47021533
Li      -5.92683955      11.13418803      10.20931036       0.47582762      -0.80207047       0.05931553
Li      -0.22338767      12.58772299       6.10369286      -0.19551826      -0.03302238       0.27838556
Li      -3.84638586      12.60163333      11.37337211      -0.17337782      -0.52208363       0.52326848
Li      13.22747686       3.74759699      14.24908170       0.19384358      -0.26283652       0.08482724
Li       4.18218398      14.49578747       9.83398139       0.68131697      -0.14292484       0.26584539
Li       7.96882030       9.60246419      13.06987433      -0.00051843      -0.19199665       0.05700751
Li      -4.12331570       1.69991279       8.36416334      -0.09680784      -0.44332912      -0.30027823
Li      -5.16556289       5.04344405       6.73104443      -0.51633164       0.33023283       0.40397460
Li       0.01777926       0.04337123       8.36442904      -0.45723268      -0.72836954       0.21133211
Li      -6.79914743      13.81484508      10.08884432      -0.23132847      -0.17737934       0.82414499
Li      10.39647343      -1.30526551       9.67528406      -0.08555309      -0.08802062       0.83905812
Li     -10.03078739      12.87166341      11.07386112      -0.03032341      -0.25795147      -0.42811694
Li      -7.79799874       9.67550507      10.19930231      -0.07562539      -0.54990860       0.33523708
Li      11.91166965       5.39435883      12.27893128      -0.29308931      -0.19438948       0.18675445
Li      -3.49033416       5.28188943      11.95838873      -0.60336699       0.92200300       0.37399487
P       -3.59130487       4.01869174       9.74736489       0.52168715      -0.17557396       0.08232942
Li      -4.61479632       6.41824870       9.69303812      -0.02122368       0.36981349      -0.41012464
P       -5.47130126       8.76898614       8.82500794       0.65561611      -0.44318100       0.34546789
