279
Properties=species:S:1:pos:R:3:momenta:R:3 LayerForceGeomOptConstraint=T E_ref=-1050.7124493827655 step=800 pbc="F F F"
Li       3.72379699      14.73006570      21.78075083      -0.31797354       0.12411377       0.29968426
Li       7.87465697      11.14595069       6.80829391       0.76487838       0.04081004       0.00482880
Li       2.83187477       1.57488051      12.47783181      -0.05031202       0.68196827       0.46470109
Li       3.62334385       5.86913856      22.37442920       0.12313062      -0.15245196       1.05776596
Li       0.28294631       5.93292414       7.50350430       0.83656338       0.20579632      -0.71806158
Li       6.21900783       2.85232389      10.52724424       0.14636442      -0.11396754       0.02815126
Li      10.97324570       1.15054581       6.99205941      -0.08830240       0.42620645      -0.81119346
Li       2.67657817       5.69372212      10.64106709       0.13258986       0.44035473      -0.30789216
Li      -0.95728611       1.00643424       5.91847959      -0.24502148      -0.53794295       0.18819875
Li       6.85451487       0.07445172       8.73714760      -0.35111248      -0.15276202      -0.61610748
Li       3.69780247      12.48349349      11.00104826       0.45049886      -0.17069646       0.70350334
Li       1.14681460       5.25682648       4.70025819      -0.32887315      -0.17029179       0.40571317
Li       3.97503837       0.53490324       5.61922135      -0.51359169      -0.41698896      -0.22240093
Li       3.67527278       0.56325621       9.97459838       0.73239995      -0.66428350       0.09416919
Li      -2.65155562      11.04259207       5.32558309      -0.17948983       0.65634836      -0.15015791
Li       1.21118104       1.43466764       7.43584041       0.13297926       0.56611948       0.22430444
Li      -5.35344927      12.48814830      23.19359176       0.20037027       0.10669279       0.37746101
Li      -0.71704531      14.21533331      10.00214871      -0.65902304      -0.11505017       0.87071092
Li       6.63136340       0.29068061      12.51307940      -0.01777424       2.00674814       0.65361109
Li      13.20189328       4.80565912      22.02538707       0.46197026      -0.20251285       0.08404164
Li       8.65386006       3.47756143       9.98826636      -0.33203089       0.02906197      -0.18342451
Li      -0.81262013       2.70419381       8.07965598       0.38684783       0.30906794       0.12568660
Li      -6.33958668      10.92600647       6.50606643       0.22492085       0.52561970       0.87678952
Li      11.02363002       5.65562100       7.22927662      -0.10363437      -0.73674013      -0.23940851
Li       5.80271670       2.60878143       7.27704727       0.43294259       0.95613906       0.09564277
Li      11.58055490      -2.30037696       7.68155632      -0.10376800      -0.40573473      -0.17266792
Li      -7.16523869      10.17570230      11.24373554       0.08455741       0.14030958      -0.49741497
Li       4.44002479       4.41687905       8.29055522       0.21788723       0.34235838      -0.70071811
Li      14.74935082       3.30132930       7.27958971      -0.18363370       0.67107453       0.13484494
Li      10.38812278       1.44299295       9.90335396      -0.74963754      -0.40063010       0.49233168
Li      -2.50985785      10.38031780       8.39021283      -0.22233793      -0.09044217       0.10903250
Li       8.53020475       4.49929617       6.90227459      -0.01149290       0.12077193       0.77685775
Li      10.51267357       6.02739973      22.34893870      -0.21446678       0.12918998      -0.08097058
Li      10.24034182       9.34473488      10.71007866       0.21992257       0.44025449       0.78141412
Li      -4.47649900       9.88835315      11.24682081       0.43227687       1.14122000       0.75456344
Li      -2.13791459       8.88329956      22.56169808      -0.20563627       0.08988478       0.47071543
Li      -0.02199048      10.96272479      10.61758220       0.29381304       0.27948210       0.02961992
Li       3.32157153       7.54211662       9.28897722       0.02520482       0.15091772       0.60699852
Li       2.19772879       8.05046977       6.65767253       0.21249350      -0.45695812      -0.30624972
Li       0.04546550       9.47221154       6.75124741      -0.32188969       0.37927125       0.13826247
Li      -4.29611724      12.79998525       7.19215896      -0.14731574      -0.07502248       0.16776286
Li      -0.85519756       7.08888641       3.22472629       0.21492068      -0.32093731       0.08419045
Li       6.11763036       6.15712808      10.14799990      -0.69068565      -0.31015272       0.21078832
Li      -3.49946579      12.46646733      11.35005034       0.36902991      -0.03153114       0.59765014
Li       2.19967482      11.20887396       9.07263000       0.02196019       0.08104163       0.78079107
Li      -0.98141923       8.26821242      11.14624027       0.31014151       0.72702050      -0.06411289
Li      -1.90551912       4.35384291       5.83742034       0.65454505       0.12787197       0.03231001
Li       0.24913576      12.61942692       7.33580998       0.26131690      -0.22096153       0.78613904
Li       1.40640147       7.65339980      23.51604025      -0.19978147       1.05211322      -0.68390154
Li       1.97610646       2.75234291       9.73155270       0.92524972       0.14843876       0.74018655
Li       4.32117373       9.45603337      13.02219813       0.17166352       0.12747369       0.36572014
Li       8.98677801      10.67897914      23.44297932      -0.43234546      -0.39709978       0.20410273
Li       5.24942849      10.68324948       8.30250723      -0.81292710      -0.08048428      -0.50898601
Li      -4.56999718       7.84326180       7.14520483       0.63430010      -0.52969691      -0.23852690
Li      -1.67512350       7.50740797       6.59166650       0.19093894       0.79231570      -0.48459673
Li       3.80004803      10.09763987       4.94443660       0.23540733      -0.30136427      -0.41132737
Li       0.84776965       9.75554493       4.18639720       0.01924189       0.67153441       0.28952565
Li       8.37155368       6.22441512       8.68403063       0.02808061       0.07393241      -0.28483243
Li      -2.18750952       6.40034927       9.30296385      -0.04215708       0.02410396      -0.17065469
Li       3.74244604      11.96611193       6.79093879       0.42441594       0.84339798       0.55356407
Li       7.14741642       8.60014490       7.02972072       0.00279969       0.48829468      -0.13344617
Li       6.49811160       7.77981291      12.22780611      -0.34353892       0.19475591       0.02844033
Li       2.42598462       3.78675261       6.73167172      -0.42408124       0.59664842       0.11484471
Li      10.09466075       8.55459298       7.73563650       0.07077173      -0.36097561       0.77621664
Li       2.50312980       3.36384850      20.83679392      -0.22298968       0.54667009      -0.24214769
Li      -2.81505241       5.01465081      17.98897343       0.95025548       0.08879889      -0.46887527
Li      -3.48283465      14.55728064       9.55151069       0.15857161       0.15644317       0.76867306
Li      -1.04743061       2.70965991      22.50786061       0.26547802       0.56692054      -1.07189734
Li       5.76667666      -0.51760818      18.42736788      -0.67112660       0.08120892       0.52750237
Li       1.01856892      -0.54154385      13.29847487      -0.04256843       0.08199648      -0.21327850
Li       2.50238473       1.33055246      23.44827603      -0.09537511       0.75796691       0.41754937
Li      -1.69848905       2.00231886      17.37888492      -0.01309510       0.04919704       0.29061245
Li       2.60837906       3.83149733      15.14452511      -0.86636737       1.04583704       0.23924758
Li       4.00445933      -0.22142871      15.55246907       0.07882823       0.76526396      -0.46195440
Li       5.11609535       3.06760666      20.57224683       0.57197224       0.50390619       0.37565294
Li      -1.07095797       1.25015701      10.50024440       0.43148841       0.49500328      -0.73004515
Li       5.19860783       1.43775613      22.82731027      -0.21970582      -0.24625597       0.27426996
Li      -3.97429186      14.45184962      13.29646915      -0.04141161      -0.47327935       0.34167057
Li       1.04001430       3.54507205      18.36779249      -0.76975836      -0.62006993       0.36909682
Li       2.76868752       0.53205899      18.67679704       0.00201708      -0.11549968      -0.38134139
Li       1.75426067       3.85218954      24.10955792      -0.74954983       0.23068600      -0.25386480
Li       9.17937379       1.16471631      12.60624068       0.58811265      -0.09231984       0.71562141
P        0.45502473       1.07891846      15.44776327       0.14084166       0.57655114       0.21997439
P       -0.06045647       5.58834979      21.05763817      -1.53428120      -0.39729123      -0.09466041
P        3.83612747       3.59919683      10.70431488      -1.06386009      -1.76024677       0.32311487
S       -0.92517408       2.49536211      14.90528010      -1.98294340      -0.67622326       1.61691084
S       -1.62593028       6.70633774      20.35035388      -0.04895627       0.03613351       0.34829102
S        2.55918794       5.69425237       8.07530956       1.04073989      -0.12986370       0.25743750
S        2.40321537       1.34335135      14.74258382      -0.55824409       0.56365214      -1.50252813
S        1.75142806       6.60581455      20.84803243      -1.04324013      -0.80354097       0.63053237
S        6.73932540       4.39752723       8.65182562       0.54575304       0.22667889      -0.31025587
S       -5.42558496      13.17223405      16.55258836       0.31820186       0.92970540       2.12216838
S        0.16541784       3.52669891      20.54180709       0.43794104       0.90402752       0.30387071
S        3.61491639       1.89160197       7.52681414      -0.75583942       1.76706661      -0.48249842
S        0.63805887       1.36205014      17.49639570      -0.62395553       0.86669174       0.39256961
S       -0.24121022       5.77461721      23.16213203       0.43790940       0.35930707      -0.75751318
S        4.85618661       2.75519031      12.47690987      -0.18498958      -0.45613206      -0.52762167
S        3.71864612       3.53447467      22.71361768      -1.22267484       0.23971709       1.27215283
S       -5.68131464      11.94468527      11.67275562       0.13127432      -0.47393557      -0.71921659
S        0.29215838       5.32379969      17.13265427      -1.35791313      -0.52966061      -0.80905227
Cl       0.38221965       1.90614474      24.37867933       1.90883224      -0.43154159       0.10573851
Cl       3.66379207       3.98618968      18.70844992       1.02194920       1.50621741      -0.92934360
Cl       1.10787443       5.29196372      12.81447036       0.23508461      -0.14243541       0.68780929
Li       8.86028969       0.61979946      22.78463333      -0.88241142      -0.24683449       0.17995063
Li       5.37810283       5.31588529      17.40753161      -0.21519791      -0.13498035       0.25480984
Li       8.78293923      12.65468563      14.36055128       0.03722393       0.15416301       0.13511068
Li       5.87362169       4.09730081      23.46438040       0.55157572      -0.11559797      -0.02141523
Li       5.87923256      12.86131307      18.14850327      -0.22424015      -0.54584809      -0.52436627
Li      10.18976958       4.13172132      12.96623223       0.15572707       0.25423300      -0.64419450
Li      11.99313588       1.79193236      23.46654018      -0.00338844      -0.08439291       0.11728641
Li       7.79168642       3.18581699      17.88465293       0.99238541      -0.05952754       0.18401390
Li      12.56995818       6.62835368      13.35910153       0.33591684       0.41750139      -0.07413967
Li      10.30408772      -0.32664216      15.57597176      -0.47126987       0.52367701      -0.49814238
Li      10.18110377       4.29030110      20.61017781       0.04204809      -0.50626652      -0.19436949
Li       7.16305767       3.32666884      13.64277367      -0.12915237      -0.36231587      -0.12476115
Li      11.58626634       2.54196339      20.69677426       0.63262991      -0.18031088       0.27755843
Li       1.73644949      11.57997041      12.64972044      -0.01814752      -0.45102824      -0.37869303
Li      11.66619792       2.83952515      16.17398713       0.30881945       0.61234909       0.15804053
Li      10.20533796       1.18695350      18.46149302       0.61596825      -0.45762265      -0.49356893
Li       8.79477715       3.71263177      23.51429549      -0.14141788       0.04383237      -0.79105591
Li       0.27329701       2.66157562      12.49188413      -0.95177794       0.18187237      -0.36951708
P        7.92644198       0.75569596      15.34729947      -0.95137076      -0.32698306       0.50847095
P        7.46576029       5.78170118      21.46064360      -0.79963338      -1.00720531      -0.66411986
P       12.49264336       3.28869684       8.80274190       1.23886676       0.02364331      -1.10893052
S        6.08101843       1.34685765      14.71034961       0.16184471       0.77876368       0.24644853
S        5.60618698       6.44653429      20.94129597      -0.70690720       1.36470923      -1.13680587
S       10.37411476       3.10956694       8.15312229       0.87586695      -0.65210718      -1.32771375
S        9.36675868       2.26100234      14.69013422      -0.43102989       0.43754717      -0.42283284
S        9.19185236       6.74525851      20.63151029       1.26734002       0.47191237       2.08986605
S        0.20850747       3.43631730       6.22095782       1.08168931       0.15259336       1.35086337
S        0.69412806      12.22656615      14.60526335       2.12592059      -0.65376144      -1.29800944
S        7.66702476       3.83096943      20.74863502       0.85477825       1.11285891       0.65498874
S       11.19923252      -0.51213838       9.15796535      -0.38842419      -0.67531862      -0.27566235
S        7.86692775       0.55571658      17.34625455      -1.15535387      -1.61894174      -0.80425454
S        7.56212656       5.74387360      23.53630084      -0.10054201      -0.44360856       0.72031456
S       11.78586046       2.78567450      11.11908993      -1.63146090       0.52695722      -0.31216870
S       10.93143241       3.90666332      22.90007378       0.34041240       2.33628542       0.96097730
S        7.99423418       1.34713862      10.63219019       0.35101141      -1.23916774       1.83392885
S        7.82399740       5.36281879      17.09372619      -0.51950725      -0.00752856      -1.18802553
Cl       7.17133960       1.90355594      23.95148242      -1.16920955      -0.09155959      -0.45969186
Cl      10.41911152       3.42203383      18.15006889      -1.96366354       0.84139954      -1.70367017
Cl       8.17456127       4.69217276      12.18443434      -0.17627888      -0.03365971       0.45027501
Li      -1.73640289      11.16678546      19.30226314       0.00910294       0.03428632      -0.37128901
Li      -5.97059448      10.45887378      20.46219732       0.09191752      -0.41323078      -0.13452694
Li       2.25254894       7.48749827      12.82999280       0.05813718       0.05353129      -0.42408045
Li      -4.80224648       9.82793678      22.88547629      -0.41553054      -0.39507160      -0.56950332
Li       2.06023646       6.56237337      18.40533640       0.96588198       0.46964256      -0.79384850
Li      -2.42158115       8.52669434      13.01388087       0.71999120      -0.41059037       0.02592690
Li      -3.17676214       5.90378875      22.31820697       0.54958896       0.50042565       0.10636918
Li      -4.74240667       9.69371707      17.21717335      -0.13216731       0.20173753       0.75954539
Li      -0.33606942      13.86180985      12.76303781       0.64931560      -0.67378113       0.34551831
Li      -0.35089574       5.79394524      14.95534499       0.03790094      -0.09064138       0.10250630
Li       1.34489996      11.84494701      21.98739594      -0.20785314       0.09549400      -0.90808753
Li      -5.26252012      11.77631645      14.35065655       0.48765624       0.38657081       0.11995031
Li       0.27495289       8.78545459      20.86120975       0.33151049      -0.34925131       0.59250826
Li      -0.93154601       5.15768287      11.57365244      -0.25215466      -0.36796473      -0.21147442
Li      -1.42661985      11.32737952      15.26934437       0.47857306      -0.35359283       0.17297157
Li      -0.85212503       7.26437381      17.81735303       0.45962681       0.23591145      -0.16700551
Li      -0.84766899      11.55683402      23.34273742       0.02552515      -0.00019101       0.40578353
Li       5.40837235      12.32707886      15.27238332       0.07535030       0.20799645      -0.34234681
P       -3.07322491       7.56141828      15.57141568       1.66604449      -1.77377570      -1.38704631
P       -3.02499681      12.02765257      21.51633131      -0.19920193       0.00366085       2.14153956
P        1.27460303       9.02560644       9.50942380      -0.20531809      -0.84405535       0.81720939
S       -4.46824184       8.58096340      14.35703349      -0.63555192       1.22366681      -1.03420516
S        3.25661174      -0.26160191      21.60739109      -0.45167511       1.04263784       0.53003712
S       -1.03571223       8.51237882       8.62588559      -0.54522342       0.25730021       0.06386183
S       -1.23268464       8.36506314      14.97225660       0.28811529      -1.41959223       0.45350630
S        4.49100164       0.86643870      20.33893780       0.31033252      -0.78413957      -0.41264236
S        1.57391571      11.14762582       5.92319617      -1.45791788       1.30929199       0.22678260
S       -3.34317535       5.54098875      15.22577766       0.08420864       0.12601592       0.23411414
S       -3.36952223      10.01876598      20.48278041       0.16096906      -1.21236745      -1.01017046
S        0.43978947       7.41912334       5.13889206      -1.08078731      -0.76127287       1.54574254
S       -3.31465040       7.78431668      17.58782010       0.04426956      -0.45055008      -0.14684313
S       -3.17584180      11.55385328      23.56418580       0.51995893      -0.97068630      -0.44040970
S        1.31401733       9.28426223      11.58918397      -0.24201147       1.47885412      -0.15981095
S        0.34162889       9.67397333      23.07441131      -1.07075690      -0.44314510      -0.21994133
S       -2.78171841       6.66637342      11.47811467       0.49370539      -1.71358950       0.60148599
S       -3.88797510      11.79186469      16.30093704      -1.66299060      -0.91430084      -0.58692226
Cl      -3.87499303       7.63124560      23.67830726       0.16739154      -0.52847267       3.08355706
Cl       0.13410842       9.51187596      18.68513191      -1.83748515      -1.08973879       0.60271629
Cl      -2.19384858      10.45105093      11.47974684       0.96036680      -0.75371227       0.58108266
Li       5.94919269       8.97773520      20.79725033       0.69419593      -0.06901894      -0.78951094
Li       2.18895182      13.35759533      16.03430325      -0.34204086      -0.72506401       0.15826662
Li       9.55243261       7.03755043      12.02199716       0.51008935      -0.03090649       0.54337597
Li       2.89123513       9.68807643      22.98957073      -0.11019558      -0.07443144       0.06596625
Li      10.34180566       5.77148141      18.09010100      -0.19612785      -0.35014691       0.37615594
Li      11.19594546       9.03865698      13.27689798       0.33701231      -0.09315514       0.29655608
Li       5.90809560       7.76105001      23.40179006      -0.56069457       0.11425600      -0.33882936
Li       2.34484082      10.46311610      18.44502986      -0.23561241       0.88195296       0.03749822
Li       9.29428192      10.21509007      14.91255692       0.44959185      -0.40491674       0.72128424
Li       8.62723755       5.67269967      15.10271117      -0.44493174       0.18184583       0.30641223
Li       8.04323680      11.24499031      20.43771287       0.08537809       0.02807562       0.18479672
Li       2.40831720      10.73957456      15.09058568      -0.25911185       0.03281253      -0.31778114
Li       8.89373586       9.03473034      21.31519403       0.82913254      -0.09027166      -0.53194146
Li       4.69498710       5.26885706      12.69705807      -0.21764442       0.15753571       0.45795368
Li       5.35629542      10.05077419      17.33583519       0.70256398       0.83202360       0.11340431
Li       7.37555291       7.11204171      18.66472455       0.54178646       0.34850422      -0.68889037
Li       6.05216957      11.92905076      22.96888448       0.50951339       0.30142516      -0.41380487
Li      -5.17662390       6.87633999      12.87475793      -0.37924719       1.04783421      -0.25669114
P        4.44556490       7.50750805      15.50497643      -0.02311452      -0.84669999      -0.24108099
P        3.88171609      12.02249934      21.12712737       0.01053846       1.81105339       0.20979408
P        7.43119547       9.48872066       9.41427775       0.59634504      -0.40247727      -1.97596830
S        2.77999850       8.43500047      14.87099199       1.54834504      -0.29134069       0.65540783
S        9.99023006       0.76168504      20.73498690      -0.35568019      -2.21385523       0.76715418
S        5.69390072      10.33992284       6.19352836       0.35720114      -1.83515016      -0.70679237
S        6.05031470       8.63639441      14.74253984       0.46172915       0.42717089       1.36632091
S       11.38028718      -0.34415756      21.72456468       0.02472916      -0.27170115       0.58320148
S       -4.24570841      10.23926920       6.83527971       0.93352216      -0.20777630       0.16465570
S        4.51616557       5.59671820      14.94516558       0.27742502      -2.07263491       1.68201760
S        3.68361581       9.92428773      20.65667014       0.54672955       0.05851396      -0.96165082
S        9.12282885       6.86333688       6.64944972      -1.44667739      -0.04059890      -0.05471136
S        4.37937095       7.61501840      17.60522150       0.76549142      -0.15646912       1.13770712
S        3.69771596      12.04385780      23.18549791       2.41049247       0.37965918       0.55589975
S        7.91342787       7.65788507      10.38351798      -0.18119021       1.70759736       0.16455272
S        6.95384806       9.73436509      22.78251201       0.65131622      -0.47768538       0.93930804
S        4.37333366       7.28150535      11.36549980       0.00166212      -0.30737266      -1.22979965
S        3.98170037      11.90065309      17.10820576      -0.52481635      -0.38680464      -0.02653538
Cl       3.60457419       7.58179090      23.96967492       1.38155917      -0.34812293      -0.19607716
Cl       7.44491418       9.47443415      19.18272836      -0.62296172      -1.34421944      -0.22820412
Cl       4.12266192      11.82697023      13.24816157      -0.09025677       0.36865219       0.13713935
S        9.30556579      10.56877987       8.74296850      -0.02243104      -0.36771992       0.44020298
S        1.30374675       0.51511311      10.96020927      -1.25852879      -1.64623894       1.77703845
S        1.11880852      13.04941057      10.76784236      -0.37454307       0.67206021       0.75704872
S       -1.44208912       0.38627546       8.27530034       2.16029719       0.67418527      -0.47133171
S       -9.08880531      11.02447567       9.77006358       0.34970290       0.04538585      -0.76028100
S       -6.68254978      13.08844597       7.81598431       0.31780176      -0.57892142       0.89800461
S       13.19829132       5.20803958       8.52584045      -0.63887904       1.23426734       0.65633998
S       -1.92964879      13.13003869       7.88898538      -1.74737176      -0.05607857      -1.23730075
S        4.25106965      12.56887736       8.86999666      -1.30456800      -0.25350858      -1.52055419
S       -4.65621696       3.77014463       9.87362762       0.26881099      -2.36526535      -0.78015265
S       -2.98884283       5.80770158       7.15025788      -0.18526887      -1.77878194      -0.64223801
Cl      -3.25390201       3.01338408      18.68706515       0.94324601      -0.50449096      -0.18910178
S       -2.51363101      14.39914359      11.57661910       0.73531241       0.47153053       2.10254904
S       -1.85206041       4.55943590      23.53852706      -0.23996615       1.17154778      -0.86778189
S        3.88874504      -1.21727931      17.42640216       0.02358821      -0.03234822      -0.67855230
S        4.00035961      -0.45364165      23.51779979      -0.10487288       0.13213460       0.35257248
S       -1.90459112       2.86697457      11.99935663       0.42823046      -0.20303958       0.12114597
S       -0.28273322      -0.76572913      15.09555874      -1.44350772       2.74258702      -0.76283678
S        5.76734464      12.77730903      20.65918454      -0.06110441      -0.51076371      -1.34382621
S        7.93862313      13.08015378      17.03495856       0.23718775       1.21856363       0.97134348
S       10.89508450      -0.40562068      23.71799110       0.90588835       0.57959515       0.12887361
S       11.81977173       7.41727843      11.38743473      -0.43146676      -0.18236350       0.63901461
S       11.41943970       5.04564546      14.74864427      -0.77456676       0.58011675      -1.07825862
S       11.81077203      -0.32223426      17.31607057       1.56112189       1.32048047       0.54930428
S       12.60580535       0.84742110      15.78403984      -0.62374702      -0.36880994      -0.61431702
S       11.95140252       5.95057182      19.96628969      -0.31459700      -0.37976560      -1.41501612
S       13.26430310       4.31597500      19.84764506       0.21743645       0.42509158      -0.69544078
S        8.43034635      -0.75392127      14.09593911      -0.18319172      -0.28974257      -0.95574727
Cl      -6.57628636       9.70132018      18.52957689      -0.89293872       1.86793315      -1.11984573
S       -5.99076532      14.00676751      14.69156162      -0.13887093      -0.46403020       0.65463516
S       -4.36763273      13.42238638      20.96513959       0.75485513      -0.22020547      -0.47061891
S       -6.69766126      10.89621913      22.45596797      -0.62759932      -1.39614576      -0.49925878
S       -1.18579660      12.67018611      21.07693845      -1.48521045       1.04937981      -2.10232432
S        2.38583672      13.11726095      20.16626547      -0.16009058      -0.14640220      -0.55238516
S       -6.87241603       7.82269955      11.25421603      -1.00630267       0.28337490       0.06211826
S       11.15518431       6.99107811      15.37544315      -0.03689834      -0.03901839      -1.69737793
S        9.30664559       7.82339869      14.51823384      -1.20140915      -1.45117293       0.66374094
S        9.94776550      11.05896749      12.78012091      -0.26398170      -0.76680540      -1.44980550
S        7.53705535      11.33597526      15.98199558       1.25198494      -1.75123250       0.35334430
S       10.19956481      11.55695476      21.55507891       0.97245096      -0.21951952       0.71367637
S       10.84255552       9.84042859      22.47432002       0.10484224      -1.63085996       0.71821303
Li      -5.72968187      11.18064076       9.22242397      -0.21781339      -0.52778202       0.45179063
Li      -2.11050832      14.31483896       6.06092439       0.28510742      -0.16371280      -0.17831497
Li      -7.26379663      12.98935037      10.07052814      -0.85676530       0.50054692      -0.09292866
Li      13.23048090       0.95672208      10.13607461      -0.24047189      -0.39071948       0.39196705
Li       2.50143094      14.12388096       8.88955711      -0.08735311       0.84985267      -0.42337771
Li       8.75454218      11.63462445      10.95052613      -0.45725375       0.04717157       0.21060605
Li      -3.56831567       1.17491423       9.23169283       0.63053585      -0.10937945      -0.75256858
Li      -4.26256638       3.95427951       7.69440036       0.29814469      -0.02062356      -0.45862808
Li       0.08692786      -0.93092303       9.64408643      -0.49355433       0.39665368       0.52723347
Li      -8.77160702      12.42336318       7.96796229       0.15075153      -0.21088740      -0.49383354
Li       9.31594707      -0.76187580      10.41887985       0.44805000       0.03162027      -0.12214550
Li      -9.71594702      11.39735029      11.88178695      -0.44829925       0.24710529      -0.64594962
Li      -8.56653358       8.74159861       9.65980284       0.27991587       0.03485479       0.24993158
Li      12.56432709       4.97424184      10.70786199      -0.28452944       0.23057923      -0.47341469
Li      -3.39956764       4.41913392      12.76193780       0.08008501       0.08163664       0.31849564
P       -2.53622002       3.62826356       9.91587150       0.00473669       0.34171538      -2.02076757
Li      -4.64261534       6.30878336       9.95041378      -0.22123847       0.40072693      -0.12405018
P       -5.98361205       8.46721944       9.51929825       0.65363886      -0.98589225      -0.42393047
