279
Properties=species:S:1:pos:R:3:momenta:R:3 LayerForceGeomOptConstraint=T E_ref=-1069.4423775841515 step=3000 pbc="F F F"
Li       3.68231870      13.07958015      18.70079520      -0.46436542      -0.15762610       0.53266911
Li       6.92414183      11.24136616       8.11528556      -1.05344206      -0.95613524      -0.31365557
Li       2.23943680       1.16441079      12.66965032      -0.33448870      -0.07243267      -0.28624621
Li       3.89483639       6.39063806      23.17684465      -0.25257369      -0.31632334      -0.70013497
Li       2.16759509       7.57783279       9.21946574       0.33300917      -0.37529435       0.70166248
Li       6.74826058       1.85278958       9.20307239       0.48393390      -0.65609110      -0.77764234
Li      12.90198618       0.76383932       7.57889823       0.90298106       0.14603907       0.83064987
Li       2.04731268       4.88849509      10.80039201       0.03445872       0.05326345       0.15035221
Li      -2.32108987       2.51176193       5.35223041      -0.03813050       0.40995997      -0.47519671
Li       6.36298108       0.31894624      11.66916876       0.02941046       0.24918250      -0.24480373
Li       6.49349779      12.47455142      10.94821588       0.13055043      -0.51748376      -0.44200487
Li       0.15687737       5.72945258       3.78517339      -0.50875903      -0.58822126      -0.26105955
Li       4.69197347       1.72520937       6.34653178      -0.32077243       0.45734909      -0.41523279
Li       2.51842606       0.41415123       9.89204423      -0.25217321       0.35798736      -0.41919440
Li      -1.31714807      10.92812956       8.29887491      -0.08699809       0.05326602       0.07629470
Li      -0.01715639       1.78473207       6.09358648       0.92743871       0.22884833       0.32349021
Li      -5.32670534      13.10776067      21.79686459      -0.03045838       0.66186371       0.71194980
Li      -0.36757763      13.73816148      10.19369258      -0.47458871       0.06989843       0.80112385
Li       8.22296640      -0.99083438      13.14609100      -0.31796884      -0.03602667      -0.05602350
Li      11.45282274       6.81731452      21.97442536       0.03896727       0.14366701       0.09173107
Li      10.13488507       4.76160774       9.10559302       0.66570655      -0.19322266      -0.47580399
Li      -1.68507215       4.08670465       7.83537213      -0.65793042       0.02378942       0.11158618
Li      -5.09844318      10.96869817       7.87592157       0.10243028       0.02519348      -0.30102411
Li      11.35840661       5.46906544       6.50059838       0.20641897      -0.04981827       0.00846852
Li       3.89356846       2.86163613       8.53792962       0.11372733       0.44329358      -0.16990903
Li      11.65700528       0.62920353      11.88081984       0.01632607       0.99032630      -0.41404791
Li      -7.78260146      10.70559491      12.47879669      -0.22861642       0.03605715       0.34820854
Li       4.72130032       5.32254521       7.76027821       0.11341402       0.10187214       0.30501258
Li      12.99363030       2.46427427      10.48326874      -0.24559461      -0.28994679      -0.23426440
Li      10.36139834       1.74240333       9.84953784      -0.65750013       0.26887870      -0.79339918
Li      -2.93681395       8.34520109       9.09815283      -0.53023566      -0.55672307       0.97342839
Li       8.27764592       3.87514315       6.34780432      -0.92097599      -0.00192387      -0.47390991
Li       9.91616724       5.97240210      24.77583300       1.05009077      -0.26072187      -0.34294167
Li      10.24329280       9.21535390      11.11829821      -0.23333853       0.56919879       0.15549378
Li      -3.69717580       9.64047977      11.18793516       0.00034536      -0.33014086      -0.39311881
Li      -2.17187110       9.76957182      22.73809090       0.32596185       0.01836110       0.04162565
Li       0.70306677      11.73381569      11.90076943      -0.46734466       0.03087804       0.21712064
Li       4.88519902       7.50140134      11.09147790       0.05568265       0.18224708      -0.96937637
Li       0.38041995       6.33454609       6.98002736       0.17182897       0.25033706       0.87492155
Li       1.79297724      10.22924941       8.72218267       0.48450201      -0.19323983       0.37659111
Li      -3.29296854      12.38725755       6.97665125       0.85739860       0.00837993       0.09861187
Li      -1.92550456       9.80491859       4.54881053      -0.20261316      -0.24306985       0.76248724
Li       5.38768368       4.74789898      10.47402239       0.06425367       0.27079533      -0.18557021
Li      -4.82935488      12.43238534      16.82697570      -0.03851597      -0.40949421      -0.71978938
Li       3.80556946      11.95169888      10.40104446       0.69508827       0.43439785       0.12624984
Li      -0.72027166       8.66874302      10.73363236      -0.74048940       0.18380676      -0.28213807
Li      -2.13202010       5.92821786       5.38637554       0.10358341      -0.05056244       0.67410343
Li       1.25314587      13.08713383       8.19971290      -0.12914965      -0.34763708       0.48729106
Li       1.15442425       8.11306231      23.31572701      -0.04753197      -0.00419350       0.24567060
Li       1.18137654       2.85349086       8.95674124       0.17379369      -0.15062519      -0.11417083
Li       4.06620453      10.17487242      12.82714922      -0.27795100      -0.77103133      -0.40688452
Li       9.59300361      10.61937611      24.05516928       0.21785556       0.15511548       0.39450517
Li       5.39192131       8.98118637       8.77993462       0.91664997      -0.37095233      -0.04774330
Li      -4.96180680       8.49119452       6.77838114      -0.30514956      -0.25334378      -0.24563506
Li      -2.15459562       8.30814042       6.65844970      -0.45005852      -0.06067348       0.55372379
Li       3.76306331       9.67592869       5.57191346      -0.26604258       0.11533716       0.94491477
Li       0.77297067       8.95408090       6.49702655       0.60567334      -0.07349589       0.50168017
Li       7.31844781       5.24562207       8.32641824      -0.08797330      -0.12520748       0.95312121
Li      -1.85627318       6.24485507       9.32724233      -0.55813384      -0.19315351       0.41139286
Li       4.23779564      11.52125935       7.36857690       0.42766920      -0.25698223      -0.80469020
Li       7.23450135       7.89191872       7.04072779      -0.22082356       0.25775446      -0.04697714
Li       5.40411908       6.25874539      13.57561527      -0.03637781       0.52908714      -0.00062996
Li       1.82005303       3.85512958       6.67085959      -0.40893019       0.39872405       0.13427762
Li       9.73846372       7.77214434       8.61123420       0.47060033      -0.39404522      -0.75542732
Li       2.82451264       3.14601820      21.19293637      -0.63717236       0.67675829       0.34606754
Li      -1.92708052       5.39631129      18.27113451       0.03463158       0.25542736       0.10462191
Li      -2.88603854      13.91017854       9.38506402       0.48512309      -0.01706501       0.54858728
Li      -0.61063513       2.91812576      23.51868802       0.23027781       0.38915312       0.20026021
Li       5.50940524       0.28808976      18.62469090      -0.57860829      -0.09410985       0.48630187
Li      -0.28859439      -0.25468290      12.60668204       0.13041782      -0.20449878      -0.06005109
Li       3.05759729       1.57884398      23.81890968       0.72762394      -0.51470571      -0.36487208
Li      -1.28010882       0.61600817      16.71504230      -0.64095689       0.11252183       0.08228964
Li       2.16479274       3.69523154      17.05244140      -0.36494276      -0.34807008       0.43364774
Li       4.46072189      -0.87600650      15.63073299      -0.34597684       0.42238187      -0.24047236
Li       4.84742924       4.75718850      20.94567948       0.63961887       0.02977819       0.59025844
Li      -1.85726072       1.44819166       9.78389829      -0.55108832       0.79367350       0.52487496
Li       6.01690580       0.88194536      22.43112775      -0.00928359       1.09112368      -0.05061745
Li      -2.99275863      15.75686922      13.51050205       0.03156191       0.46222760       0.42834773
Li      -0.15098321       2.83062298      18.59710334      -0.20409511       0.22668637       0.23029038
Li       2.79826359      -0.23847522      18.98353091      -0.45536866      -0.53293733      -0.00295100
Li       1.82677381       3.87383130      24.03956136       0.14157882      -0.04937417      -0.49197888
Li       8.74975091       2.45544359      12.24876182      -0.96645532      -0.36805369       0.36880944
P        1.38519792       0.90975665      15.30603663      -0.21319325       0.25276516      -0.44931534
P        0.03341554       5.17241385      21.61936083      -1.19931084       0.51124222       0.40334934
P        3.90219608       2.74270443      11.49271439       1.47135599       1.15453667       0.63282013
S       -0.36629748       1.64588313      14.41726268      -0.10287352      -0.26162096      -1.58248949
S       -1.66061282       5.94396593      20.70605286      -0.49885401      -2.37308743      -0.60604714
S        2.30935395       5.28382639       8.48355682       0.60627730       0.63883166       0.37132388
S        2.96812831       2.20063679      14.93588930      -0.01336360       0.37570210      -0.97666154
S        1.51596041       6.54530699      21.34597371      -1.39082637      -1.07042777      -0.33633729
S        5.99020198       3.25841493       7.37799175      -0.25192165       0.31715733      -0.82652037
S       -2.22401890      14.74111277      15.55920937       0.33257605       1.37618039      -0.64835584
S        0.50449630       3.31949074      20.89487277      -0.43208814      -0.87481698      -0.02858309
S        2.18315075       1.54921251       7.39402773       0.34444424       2.15216362      -1.28312592
S        1.09233697       1.04165659      17.45090200       1.27984353       0.56023861      -0.49830319
S       -0.21363186       5.58253778      23.74540099       0.50136102      -0.31777471       0.05885428
S        4.67399127       1.06422150      10.23825518       0.15693446      -0.24885101      -0.85506632
S        3.92912038       4.00714662      23.20273176       0.00181207      -0.26997319       0.58189049
S       -5.35862979      10.94203854      12.68911154       0.83974868       0.01715368       1.10717711
S        0.11700261       5.10696857      17.16200538       0.29048903       0.68058942       1.72172140
Cl       0.95713677       1.83091193      24.87166901      -0.26507659      -0.23775705      -0.21097133
Cl       3.45098972       4.26076016      19.05091464      -1.58835224       0.41078829      -3.36406805
Cl       0.23121558       4.84618905      12.51650827       1.08318508       0.28747930       0.28531124
Li       9.70601226       0.97238586      23.41685862      -0.09475822      -0.39005382       0.25613634
Li       5.00166499       5.70347137      17.82283127       0.70801363      -0.38145467       0.54399807
Li       9.66398440      11.31275927      14.80617309      -0.12639540      -1.11464580       0.80959965
Li       6.29236757       4.01621859      23.67350453      -0.05774909       0.52270450      -0.48090252
Li       6.65293563      12.06994948      18.01876744      -0.75296707       0.44328574      -0.22565838
Li      10.59653639       3.74679742      14.32875214       0.13623900       0.24426353       0.58711801
Li      12.05702624       2.83748399      23.59952834      -0.41303849       0.08923786      -0.27350595
Li       7.93263574       3.41459869      17.63517612       0.30486915      -0.08370787      -0.31124853
Li       8.73727912       5.14098536      11.96563417      -1.15165879      -0.04902292       0.19549853
Li      10.79580167       1.09666859      14.87503338       0.02828273      -0.16207492       0.57153414
Li       9.62057214       5.57864405      18.45015703       0.48632543       0.34314143       0.60013752
Li       4.85770935       2.29811566      13.56616324       0.43242001       0.38734162       0.27641926
Li      11.26210127       4.29379840      20.69155185       0.06938319       0.41361186       0.00668919
Li       2.29759274      13.52871239      12.94429638      -0.59241165       0.12556262      -0.31062604
Li      12.20147727       2.93350302      18.12909481      -0.04782002       0.17669855       0.37937234
Li       9.78596604       0.89800885      17.57782940      -1.17025395       0.93695329      -0.18433417
Li       9.25785266       3.21908501      22.41361661       0.37108528       1.06372686      -0.03405886
Li      -0.44421165       2.75741650      11.86875605      -0.38349072       0.41140171       0.40061250
P        7.77203342       0.89669310      15.40937282       0.35473559      -0.98077904      -0.77721726
P        7.39989688       6.23760558      21.76463663       0.62606750       0.19289373       1.59950291
P       11.81644717       2.94551192       6.94740595       1.76888018      -0.50729464      -1.88926345
S        6.17758336       0.28315048      14.21862372       0.05906100      -1.36008822       0.02688134
S        5.66568041       7.01672615      20.95480144       0.15791277       0.53543839      -0.47081456
S        9.90630268       2.32003099       7.46463748      -0.97879108       0.53096472       0.30336373
S        8.44634362       2.75590176      14.71010345      -1.22300815       0.09687184      -1.53611501
S        8.89661359       7.01658305      20.61320620      -0.69075899      -1.33319548       0.18734483
S       -0.50940961       4.10594750       5.66575388      -0.49333666       0.55261332       0.97772008
S        0.75575613      12.10564804      14.09048046      -0.11765769       1.03170734      -1.45408856
S        7.29993379       4.20484178      21.23356055      -0.62508802       0.15175273      -0.41092604
S       12.27542385       0.29861757       9.74830716       0.95458897       0.20409001      -0.34412684
S        7.11876532       1.35155965      17.32947184      -1.15310880       0.88970608       0.11758898
S        7.25189669       6.34678694      23.89598115       1.62359502      -1.52737674      -0.05403180
S       11.08076501       2.96619652      12.17462964       0.43893455      -1.20722465      -0.88942232
S       11.00465517       4.68540030      23.09973441      -0.20221667       0.07457676       1.11013014
S        8.81839145       0.14096560      11.03952009       0.37573931       0.32790180       0.73965798
S        7.31298382       5.63496150      17.42758089      -0.59431213      -0.28504060       0.08029558
Cl       7.63911978       1.94574427      23.75398205      -0.94994250       0.58958868      -0.64746568
Cl      10.06709579       2.83416300      18.77427868       0.98309429      -0.74852713       0.12441418
Cl       7.38186758       3.51597008      10.67223017      -0.33037318      -1.62671589      -0.88759666
Li      -1.73893227      10.37788549      18.11668006       0.57557293       0.37837142       0.22511985
Li      -6.35955742      11.39905648      19.41991559       0.15409275       0.42248153      -0.83316940
Li       2.11812492       7.21710600      12.48409027      -0.14354342      -0.28034219      -0.15247836
Li      -5.11479841       9.68207068      21.92643456      -0.20648329      -0.35308316      -0.11466714
Li       1.87886823       6.07066507      18.76053246      -0.57058210      -0.87010942       0.39638098
Li      -4.24869863       9.95021340      14.57039235      -0.30198953       0.24852855      -0.10856694
Li      -2.55286922       6.38584061      22.88956959      -0.41224107      -0.41380254      -0.17688570
Li      -4.20858956       9.36392252      17.23771102       0.51729809      -0.42108079       0.05246311
Li      -1.25202139      13.60368004      13.73199533       0.29169049      -0.40529946       0.06091145
Li      -1.26099892       3.90682365      15.81639444      -0.46593762       0.43917111      -0.57773867
Li       0.67975164      11.08354467      20.49011366      -0.58618826       0.66046681       0.51425707
Li      -2.43105798      13.48361026      17.43930002       0.30143040       0.09215529       0.39791737
Li      -0.50208965       8.38355419      20.66916796      -0.76135023      -0.00953636      -0.56425958
Li      -1.57721293       6.29839101      13.01865707       0.02864137       0.66434089       0.02720330
Li      -1.01634535      10.88400607      15.07624165      -0.52782484      -0.13225232       0.38801721
Li      -0.37528027       7.13407656      16.44083153       0.02433076      -0.42994298      -0.11196652
Li      -0.98873941      12.37646641      22.12797911       0.11253467       0.12257866      -0.33242124
Li       5.38174706      12.04722110      14.88441958       0.37814990       0.08040500      -0.07344026
P       -3.55637768       6.84349208      15.24867204      -0.28119778      -1.00388816       0.93298630
P       -3.09292273      12.16387739      20.35002101       0.01644942      -0.64829886       0.90730216
P        3.19938831       9.35203065      10.58069133       1.78624925      -1.39051735       0.57852196
S       -5.35232187       7.64806188      14.60272745       0.62218994      -0.56320291      -0.14333695
S        3.32672383       0.22214555      21.68871471       1.11848773       0.23536997       1.01391524
S       -0.31097305       8.34891328       8.49058562      -0.96091287      -0.80511981       0.13742979
S       -1.95574455       8.02415327      14.60567133      -1.29665001       0.32480709       0.99470992
S        4.49044728       1.51737352      20.49281145      -0.22137010       1.07130030      -0.84459478
S        2.07621210      11.10716095       6.51901342       0.38008457       0.31239385       0.06019172
S       -3.13729221       4.94479873      14.66228409      -1.56117366      -0.14071706      -1.46290095
S       -3.43194326      10.13172712      20.05001079       0.40073237      -0.63126722      -0.48288246
S       -0.73939619       7.68816629       4.78384759      -0.07241854       0.03278680      -0.51706649
S       -3.59998213       6.86908999      17.42712613      -0.42701935       0.57972828       0.71249007
S       -3.23245765      12.31724595      22.49773090       0.89008076       0.92753178       0.62672989
S        1.59771422       9.48940900      11.95422076       0.54417177       0.53277568      -0.55685137
S        0.11014781      10.12259915      22.57000742      -1.93808666       0.82646530       0.25324415
S       -2.73499546       7.33842399      11.17081714       0.80601798       1.05569279      -0.86523818
S       -2.69746677      11.09998228      16.35095001      -0.80514728      -0.96736459      -0.83836878
Cl      -3.75077400       8.24549560      23.16544841       0.05981112       0.07206348      -0.52202211
Cl       0.24088148       9.43708472      18.66426731       0.97661938      -0.47807206       0.83234689
Cl      -1.83999199      10.93359561      10.59554891       0.74172229       0.07486220      -0.82972791
Li       4.77775303       9.52911050      23.04685048       0.17185352      -0.13790400       0.36924329
Li       1.44383915      12.63691414      16.44883879       0.05329291      -0.31176751      -0.13036637
Li       7.71261100       7.32224473      10.75822289       0.52422722      -0.13197528       0.13917037
Li       1.90498546      10.62548335      23.95535012      -0.55151907       0.49929676       0.37372559
Li      13.09269678       5.93664891      16.58269234       0.15686957       0.08800708      -0.41200012
Li      12.27100644       8.14472783      13.74563152       0.45576359      -0.53131506      -0.21625930
Li       7.91524740       8.51781257      24.47948788       0.56400538      -1.27781145      -0.30612826
Li       2.66713416      10.19373877      18.25731688      -0.19403189       0.10412771       0.52799837
Li       9.53982016       7.55311358      13.55784685      -0.45639275      -0.11166147      -0.31544992
Li       7.05548128       6.63898901      15.19984172       0.06619634       0.08914152       0.58554928
Li       6.27811746      10.51870847      20.42135254       0.47775128      -0.01589639      -0.57242555
Li       2.05389102      10.25520755      14.79052828       0.11598754      -1.19500065       0.48070192
Li       9.23497931       9.14144253      21.66691590      -0.28393441       0.24850892       0.30416075
Li       2.04443590       4.67720053      13.93545412      -0.20727305       0.16666120      -0.24251125
Li       5.04846695       9.87349513      16.88869613       0.10384326       0.20509752       0.18710721
Li       7.24783774       7.48004537      18.96170438      -0.37516390      -0.38660040       0.87670296
Li       6.23588296      12.33456507      22.84157017      -0.36761191       0.16424976      -0.48481667
Li      -5.61045758       8.62315650      12.49106770      -0.00784677      -0.00860913      -1.02228759
P        3.31012334       7.44440967      15.77597901       1.18269069       0.53165226       1.73391014
P        3.74408779      12.37134393      21.20211324       1.93918114       1.30188707       1.10168134
P        7.36937819       9.89333183      10.46665537       1.55636977       0.99301739       1.16992528
S        1.43441839       7.94645507      15.08363641       0.54651751      -0.78822752      -0.38383778
S       11.28491169       1.25061337      21.65270992      -0.76835656      -0.49058819      -0.12180042
S        5.71438271       9.66453770       6.65571440      -0.40317145      -1.15470762       1.44791696
S        4.71572420       8.52358240      14.74585890      -0.48541001      -0.66708356      -1.83946515
S       12.21252490       0.35280145      23.43683059       1.42478233       1.43348167       0.11947302
S       -3.37680161      10.18238626       6.44334425       0.50327788      -2.78990827      -1.15781566
S        3.68179506       5.46594202      15.62471281      -0.58934668       0.25593335       0.97888787
S        3.53985786      10.36114798      20.65652949      -0.04808169      -0.05537451       0.28267973
S        9.18064839       6.16743443       7.11942392      -1.04602560      -0.09690538       0.16058139
S        3.32570593       7.74442070      17.86261839      -0.28937870       0.28291482       0.67189522
S        3.92331300      12.38965912      23.17397883      -1.11564991       0.29609671      -0.65556682
S        5.94676978       6.84410719       9.11230818       0.56246476      -2.16368388       0.19164195
S        7.40694520      10.27923892      22.81761283      -0.08698566       1.20146093       0.02732757
S        3.67964862       5.50389216      12.08623388       0.59964442       0.38768757      -0.10689418
S        3.59568460      11.85898313      16.65012096       0.50584999      -0.51754898      -1.31506309
Cl       3.16059506       8.46399864      24.36552076      -0.26096482       0.40029482       0.62360967
Cl       6.88324959       9.83939121      18.39678268       0.64064773      -0.75108918      -1.53000992
Cl       4.57098603      12.53019952      12.78152998      -0.04307709       0.20359614       1.44540383
S        9.02343757       9.94435300       9.23647690       0.52110887      -0.77067405       1.05051955
S        0.45726930       0.98339823      10.60868053      -0.21285812       0.81627328      -1.23994794
S        1.93970643      13.29375364      10.56436975       0.97080303       0.29623445      -0.02529140
S       -1.96103321       1.07294488       7.29800422      -0.75259089       0.91208707      -0.48248176
S       -8.19943376      11.69210894      10.15260926       1.45228906       1.02537500      -0.49581541
S       -4.84890379      12.78372574       9.08170717       1.49547768       0.80179318      -0.68912929
S       12.64105166       4.24703402       8.56163994       0.46899694       0.16818195      -0.36917086
S       -1.10548911      13.23133010       7.82316813       0.82007368       1.27006554      -0.19172931
S        5.36516637      12.84009892       8.95440027      -1.15204949      -0.45745362      -1.18662204
S       -5.12623551       3.60954186       9.16544789      -0.11889881       0.35212094       0.49513954
S       -3.31418438       6.44264231       7.16209874       0.52346895      -0.67488993      -1.39662170
Cl      -2.55974354       2.46182406      17.44719642       0.10394554       0.89270677      -0.58563167
S       -2.15184003      14.43573973      11.64352947       1.96557274      -0.66573353       0.21413202
S       -1.78135388       4.49492352      24.63386836      -0.74820627      -0.26444682      -1.25340341
S        4.42376079      -1.38028925      17.78274596      -0.85654226      -0.09023791       0.04306106
S        4.17625988      -0.55153713      23.42855718      -0.29827143       1.00671502      -1.32692902
S       -2.92882298       2.82891545      11.65898164      -2.32245430       0.92265944      -1.45705937
S        1.95746000      -0.76076788      14.34845432       2.16087585      -1.99835539       0.26237981
S        5.44294096      13.32592556      20.33278026      -1.98214183       1.94152665      -1.42836865
S        7.66997949      12.45012560      15.57977675      -1.36454165      -1.21138073       2.21229178
S       11.42678345       1.09961808      25.15918464       0.45454852       0.81355354       1.88819192
S       10.22206465       6.68294520      10.72925989      -0.03237751      -0.38957857       1.00951297
S       12.87891698       5.92317656      13.95014042       0.71662308      -0.71474476       0.86346721
S       12.47704660       0.84766044      16.47724254      -0.46112095      -0.65690477       0.71051206
S       12.41491672       2.84884441      15.86178238      -2.71164642      -0.29961211       1.17351525
S       11.80147944       6.39638345      19.44158358      -0.94212040       1.25929993       0.91597844
S       13.16389213       4.98298239      18.81249137      -0.60554023       0.54143441       1.05279089
S        9.12032809      -0.55968418      15.67660358       1.04154054      -1.53173656       1.82113330
Cl      -6.28272508      10.50924640      17.22443986       0.63970213       0.11112273       1.14632065
S       -4.08468756      14.01953110      14.87150080       0.18074411      -0.09051642       0.28247573
S       -4.48575541      13.36676067      19.42136125      -0.14136865       0.45852281       1.66420135
S       -6.78114529      11.32164372      21.58997027       0.58606328      -0.52033081       0.27282673
S       -1.26328903      12.90142306      19.89328441       1.34314496      -1.27365284      -0.86450941
S        2.08374346      13.28467036      20.41466365      -0.39461004       0.63720476       0.18517510
S       -6.77305839       7.61190094      10.49718167      -0.22563958      -0.39604925      -0.60351187
S       11.05977337       6.03943248      15.14217610      -0.28581244      -0.17997448       0.14370968
S        7.50453043       6.93318865      12.98038444      -0.05207636       0.90594485      -1.71957430
S       10.52055576       9.67405942      13.29546925      -0.26934645      -1.25792456      -2.15812359
S        7.37194638      10.47291911      15.07757103       1.10801031       0.99362612       0.13791788
S       11.10156640       8.94201619      23.24483025      -2.42677760      -0.45752809      -0.38993721
S       10.15452470       8.54964029      25.10188863       0.85348353       0.58534651       0.30065825
Li      -5.90500962      11.16615749      10.40036292      -0.41608874       0.11039759      -0.38560765
Li       0.14190002      12.43381429       6.05293071       0.01902246       0.69576175       0.30587295
Li      -3.76590435      12.63267983      11.67306925       0.41398173      -0.49093179       0.10437643
Li      13.10255647       3.35246821      13.55980810      -0.16652504       0.85863898      -0.06861177
Li       3.71175586      14.23334461       9.34435780       0.59301739       0.06797803       0.38604845
Li       8.15517820       9.62008268      12.95195244       0.16145390      -0.09964221       0.73986644
Li      -4.06424379       1.72470756       7.98805408       0.05239141       0.45551550       0.43978950
Li      -4.76121050       4.55892471       7.17060104      -0.29407321       0.35878943      -0.46274534
Li       0.16082584       0.12449826       8.20616837       0.09538242       0.24290931      -0.75108831
Li      -7.09329621      13.33238251       8.93532935       1.12416974       0.29404925      -0.31469710
Li      10.11491841      -0.79235806       9.47132283      -0.38098197      -0.18948251      -0.36385422
Li      -9.90434292      13.00757229      10.85056817      -0.34110981      -1.09004528      -0.28315219
Li      -8.36812455       9.53355434       9.43944019      -0.27600177      -0.43331662      -0.21634318
Li      11.89219020       5.40650132      11.52762679      -0.09746908      -0.37152005       0.21473627
Li      -3.93022748       5.30672440      12.16218850       0.34555699      -0.86578503       0.34629680
P       -3.03678466       3.84559985       9.82373283       1.69487199       0.59983747       0.87418953
Li      -4.94089189       6.06690662       9.61528251      -0.48455836       0.07861286      -0.37459673
P       -5.72928110       8.90781036       9.20860251      -0.07265530      -0.37125659       1.14292310
