279
Properties=species:S:1:pos:R:3:momenta:R:3 LayerForceGeomOptConstraint=T E_ref=-1058.9992204739829 step=1300 pbc="F F F"
Li       3.71189186      14.87724986      20.45423638      -0.35059481      -0.35447872      -0.07551792
Li       6.65362363      11.39024072       7.81019876      -0.10954039       0.82811168       0.81130067
Li       2.66525876       1.93576065      12.52801237       0.13570988      -0.22454213       0.32324076
Li       4.01222728       6.10871213      22.61044892      -0.03199178       0.06765887       0.57497092
Li       1.07559700       7.18653509       8.69462950       1.00854883       0.32733993      -0.35984690
Li       6.41020303       3.08354026      10.76010160       0.41102535       0.39390621       0.54026609
Li      11.17481492       0.34354448       7.43504487       0.03181642      -0.63298689       0.29627189
Li       2.47564388       5.99505662      10.60525812       0.09337097      -0.60173253      -0.03722231
Li      -1.69540207       1.55531147       5.33518008       0.09510358      -0.38569256      -0.03293723
Li       6.70975690      -0.12931931       9.48209378      -0.18398153       0.01948427      -0.56174360
Li       6.01991896      11.98689590      10.80441679       0.35773098       0.16320967       0.14292585
Li       0.67365965       5.14840922       4.08241440       0.74083194       0.22693714      -0.56091439
Li       3.67384246       0.14442690       5.81224087       0.45263094      -0.43903783       0.18351903
Li       3.61511762       0.87450148       9.98393950      -0.00310103       0.04897187      -0.30116026
Li      -2.31738225      10.58266885       8.43020664       0.18449533      -0.06918988       0.45093061
Li       0.81981250       1.59153668       6.37675358       0.72057831      -0.37095155       0.47089577
Li      -5.62075878      12.66067930      22.82010335       0.28308131      -0.17862388      -0.22349403
Li      -1.15505932      14.13154575      10.20190002       0.06505793       0.01124063      -0.88559591
Li       7.24165851       0.03305031      12.53590216       0.51241062       0.11527086       0.39498704
Li      12.68015549       5.48309123      21.43876512      -0.31787861       0.76042048      -0.42088738
Li       8.75117913       3.87615674      10.33081771       0.24732277       0.78579011       1.16954692
Li      -0.94836654       3.21635706       7.79907289       0.80925971       0.24731107       0.17513402
Li      -5.69332693       9.94622730       7.38770155       0.48977673      -0.00189325       1.14227373
Li      11.05081117       5.88198496       6.47641539      -0.05425433      -0.32546678       0.40982986
Li       5.49316679       2.30500802       7.07305485       0.03463145      -0.19704256       0.41857773
Li      13.63081356      -0.90830781       9.63595800      -0.15631319       0.54635529      -0.49947569
Li      -7.75301097      10.43895458      11.90403908      -0.03171798       0.61277371       0.07011236
Li       4.30169476       4.42066880       8.79549540       0.79940473       0.38787239      -0.47961614
Li      14.66938367       3.15072871       6.91949668      -1.09334594      -0.22550159      -0.04604838
Li      10.20969096       1.84463927       9.67106946      -0.31884908       0.09251355       0.00006882
Li      -3.52225406       8.22128092       8.33670856       0.42801801       0.22073629       0.10083060
Li       8.42077128       4.46775086       7.22729851      -0.09539738       0.21081376       0.15126972
Li      10.17425702       6.52494247      23.17091736      -0.54919132       0.99592061      -0.20189855
Li      10.26467111      10.24911077      10.97504860       0.23329727       0.01018129       0.21644428
Li      -4.59212441       9.47141694      11.39101256       0.30921515      -0.17419559       0.32049409
Li      -2.15046420       9.69494983      22.65812227      -0.11086064      -0.59553482      -0.11383491
Li      -0.13838679      10.76891909      10.52933148      -0.15051492       0.37118041      -0.54892202
Li       4.35809655       7.65613844       9.54042660      -0.02739456      -0.40979225       0.09553260
Li       2.42296516       7.12075993       5.84158513       0.13314473      -0.06876521       1.05648929
Li       0.67870749      10.08236964       7.79118827      -0.07286671       0.32327406       0.26607145
Li      -3.92296022      12.27732134       7.07708129       0.30631401      -0.47951754       0.63515514
Li      -1.90658535       7.85823247       3.81441819      -0.77255058       0.25986273       0.78304379
Li       5.61568896       5.42559175      11.12573057       0.11971641      -0.10858236       0.32916916
Li      -3.21836200      11.92561553      13.13019240      -0.22498792      -0.21239998      -0.35145531
Li       2.71273214      11.60092029       9.83619431       0.18677162      -0.20545880      -0.31305467
Li      -0.98014272       8.19386740      10.91858749      -0.49018035       0.63276904      -0.71277411
Li      -1.42163066       5.45627835       5.90150107       0.37883970      -0.46965315       0.76448705
Li       0.56854504      13.08543607       7.94011359      -0.30003888      -0.92447392       0.05011896
Li       1.42877868       7.62389079      23.21131310       0.70902477      -0.37857358      -0.84747401
Li       1.82597720       2.84547263       9.87987233      -0.08568409       0.13159311       0.54362397
Li       3.30447053       9.08228265      12.30197011       0.31531443      -0.87501734       0.06180460
Li       9.04318815      10.55782585      24.14303403      -0.40112189       0.68984005       0.22867264
Li       4.78541189      10.15002927       8.79867489      -0.13391113      -0.03341285      -0.51140493
Li      -4.36210396       7.60052239       5.56155488       0.11958782      -0.11439723      -0.18641446
Li      -1.54530113       8.36328220       6.57238630      -0.07219022       0.06180112      -0.09812094
Li       3.40896525      10.21827248       5.16300243      -0.13509133       0.46635687      -0.41406234
Li       0.43997722       9.47288459       4.68593811      -0.10023954      -0.45510423      -0.32950174
Li       7.10758157       6.26695992       8.05749891       0.49945197      -0.34162667      -0.35424325
Li      -1.90230560       6.31146812       8.84961618      -0.01027170      -0.06000873      -0.51178878
Li       3.64785275      11.76883153       7.17147927      -0.92490199       0.17667813       1.42883165
Li       7.34856191       8.77613848       6.94607952      -0.13495631       0.31250064       0.37962016
Li       6.17039265       7.62596773      13.12681570      -0.29791450       0.26816224      -0.66154715
Li       1.96511303       3.98788385       7.15478960      -0.08832251       0.42672802       0.13643774
Li       9.31650258       8.10310652       8.88661845       0.30042206      -0.04551268      -0.17715443
Li       2.66650953       3.10537293      20.83146626      -0.24319049       0.12098699       0.57519392
Li      -1.89268369       5.55200060      17.78794624      -0.60110416      -0.60587836      -0.29333615
Li      -4.06186310      13.10629985      10.38165037       0.29923884       0.14527368      -0.25138895
Li      -0.88803785       2.99028816      23.28338356       0.70809933       0.24027983       0.19268186
Li       5.57768202      -0.08178489      18.12999603       0.07117186      -0.27508955       0.32445982
Li       1.25492406      -0.54461880      13.09917761       0.29021159      -0.16099826      -0.51524906
Li       2.94123940       1.35532159      23.46577124      -0.48624453      -0.26254146      -0.48814028
Li      -2.16891741       1.87972343      17.18781623       0.42377616       0.15536087      -0.62929455
Li       2.21231004       3.69275878      16.45827060       0.75739157       0.11972632       0.45180027
Li       3.99945235       0.61197191      15.74962245      -0.40738873      -0.25275221      -0.14803099
Li       5.28684855       4.42704192      20.85427277       0.54200023      -0.40142663       0.06090701
Li      -1.05665369       1.31038671      10.15598769       0.13123724       0.12818597      -0.54419284
Li       5.48451585       1.45187454      22.43200966       0.07628508       0.62373980      -0.14784451
Li      -3.26329114      14.68531671      14.09186565      -0.53129793       0.13262904      -0.32467399
Li      -0.12014268       3.26036489      18.62987109       0.23482169       0.23630153      -0.34186398
Li       2.75016172      -0.08812464      18.32378511      -0.40615528       0.05381553       0.62969703
Li       1.76380630       3.84396569      23.52980893       0.41834047      -0.00729821      -0.16404307
Li       9.85709811       1.62541638      12.45321501      -0.10491504       0.59105280      -0.43604591
P        0.07171955       0.84602588      15.51115527       1.16174506       0.54983219      -1.03098408
P        0.24053817       5.50301442      21.20776733      -0.51694487      -1.66181668       0.74666032
P        3.86244607       3.52175587      11.15117829       0.98707492       0.61702843      -0.94060764
S       -1.37118104       2.26881774      14.92264073      -1.02929539      -0.42273386      -0.29367268
S       -1.30729261       6.60432598      20.48990668      -0.52634303      -0.45316020       0.43562195
S        3.04600202       5.99447673       8.07293738      -0.66071875      -1.04484141      -0.19690251
S        1.93137183       1.77119239      14.84971925       0.64015835      -0.40253510      -0.26990999
S        2.05889850       6.59892588      21.07814271       0.92763775      -0.49523489      -0.23818498
S        6.53504112       4.13073188       8.72154656      -0.88708854      -0.00476685       0.81015376
S       -3.85121181      13.61072319      16.20226275      -0.45374340      -2.53026365       0.22653446
S        0.21571512       3.46387845      20.97449225       0.41073877       0.86375039       0.86263223
S        2.99995401       1.46827412       7.66388291      -0.17796821       1.19187578       0.79115023
S        0.33641257       0.91727145      17.61749115      -0.43138636      -0.24221704      -0.11404544
S       -0.07273048       5.62493203      23.34493788      -0.77359820      -0.14717262      -1.25599081
S        4.76935061       1.75617710      11.89415895      -0.48764943       0.75924465      -2.45986684
S        3.96400024       3.50036043      22.77911722      -0.07919739       0.79532885       0.22227738
S       -5.51085590      11.82587537      11.81529227      -1.30985258      -0.80223237      -0.84102844
S        0.52926519       5.22145738      17.30456726       1.18214383      -0.13448233      -0.34701923
Cl       0.84608949       1.94544106      24.36590473       1.03969884      -0.22276108       1.53465532
Cl       4.04434186       4.08841445      18.85496850       0.94007857      -0.43707045      -0.29775349
Cl       0.89227762       5.04776664      13.09157973       0.79552148       0.69167650       0.22136286
Li       9.04207476      -0.03915572      23.38686384       0.21130375      -0.58251789       0.18905640
Li       5.55476453       5.28393588      17.80663262       0.44617907      -0.01059376       0.05265341
Li       9.53410832      12.88991586      14.64462431       0.32138635      -0.12637359      -0.72186602
Li       5.87688219       3.92265509      24.12833803       0.22625042       0.05172775       0.13810324
Li       5.73829117      13.27595925      17.71637336      -0.44734402      -0.34529165      -0.69474169
Li      11.33734876       3.38118248      14.01589010       0.52373097      -0.23770927       0.59823307
Li      11.90393793       2.81184048      24.10137677      -0.10846772       0.25940439      -0.50966063
Li       8.13882796       3.22836200      17.04574202       0.05922497       0.26436787       0.32724077
Li      11.55854560       5.67391448      12.45526358       0.36887974      -0.52546467      -0.59277670
Li      11.04978516      -0.87142457      14.81026810       0.02726773       0.20120329      -0.26798860
Li       9.87323854       4.86544325      19.88831360      -0.49172555       0.00998859      -0.46549097
Li       6.56839601       2.85454677      13.59160433      -0.00857677       0.31524525      -0.53479994
Li      11.39156847       2.66283665      20.74036458      -0.13841357       0.43126946      -0.57777747
Li       1.88655891      11.91384592      12.50817174       0.39014632      -0.17439803      -0.15793610
Li      12.44085980       2.86462072      17.02072833       0.20612688       0.52148147       0.33414029
Li      10.11931159       0.67212494      18.20935619       0.12160118      -0.86410690      -0.39762172
Li       8.82688783       3.44637462      23.08529441       0.38198593       0.42747459      -0.13295184
Li       0.02845470       2.81503127      12.69667353       0.41517990      -0.47856782       0.27422135
P        8.04890858       0.52223300      15.29489278       0.99494324       0.15211606      -0.09775298
P        7.63347785       5.81296811      21.69258243       0.84033821       0.47683649      -1.07534964
P       11.97015461       2.86436899       7.55246329      -0.25640651       0.81136495      -0.30793308
S        6.18905406       0.55655423      14.55228461      -1.33002027      -1.45919978       0.69787171
S        5.74653156       6.89802494      21.11731974       0.57643740      -0.13538354      -0.60333642
S        9.81756911       2.63282133       7.34526960       1.01609479      -1.14926174       0.90440037
S        8.78250894       2.32248034      14.66625937       1.75636721      -0.77315133      -2.50610105
S        9.19276788       7.06176258      20.98093740      -0.49998288       1.53890666      -0.97202758
S        0.04641122       3.54025549       5.54005527       0.93327417       1.62582682      -0.42824202
S        0.89317322      11.99320026      14.46487327      -0.81499008      -1.03361713       0.28894192
S        7.79638211       3.94803113      20.94435161      -0.41655645      -0.49046932      -0.85120796
S       11.51290255      -0.22072440       9.81183710       0.85389261       0.20240719       2.03908512
S        7.86262769       0.73167662      17.39971368       0.34717247      -0.35050067      -0.35744873
S        7.35779195       5.86157807      23.68769221       0.90832153       1.79037481      -0.54466166
S       10.98497167       3.53303781      11.37459330      -0.35134165      -0.34287614      -0.49719720
S       10.98342137       4.44979301      22.68424312      -1.55887074       0.13385806      -0.06754730
S        8.18930710       0.88889933      10.74059750       0.89551051       0.33238695       0.10876303
S        7.88606893       5.72606381      17.66495818      -0.35673194      -0.78241763      -0.84668408
Cl       7.25059829       1.90205496      24.05722801       1.58883607      -1.24484430       1.64476654
Cl      10.20961880       3.01515283      18.21319260      -1.60181667       2.01624958       1.40804717
Cl       7.52793790       4.81278683      12.19855240       0.24883275       0.24997206      -0.55041282
Li      -1.48245056      11.34422762      18.92232328      -0.33299446      -0.55750116      -0.34101915
Li      -5.88028267      11.31382214      20.58738756       0.24071806      -0.42919694       0.04569771
Li       1.68365159       7.29607532      13.14679322      -0.75896309       0.18857166      -0.29114828
Li      -4.92081323       9.96771861      22.96770879      -0.14819179       0.41190304       0.20500520
Li       2.56727630       5.93194008      18.55662691      -0.19012346       0.59784384      -0.24717400
Li      -2.53913100       8.44696292      12.96755056      -0.13385571       0.24698758       0.22417735
Li      -2.80926891       6.68168741      22.22923489      -0.02324426       0.60835767      -0.52056100
Li      -4.55795158       9.89807552      17.40903642       0.20592888       0.09109852      -0.01443473
Li      -0.43607808      13.20461638      12.59153006      -0.75502752       0.14562297      -0.63522961
Li      -0.27492098       4.54144620      15.21816175       0.35804854      -0.01003900       0.89108791
Li       0.54657793      11.02362249      20.74711334       0.16558921      -0.07904559       0.16746339
Li      -5.65596796      12.14776467      14.32769792      -0.22301330      -0.10455212       0.36288421
Li       0.38498263       8.44605600      20.54774671      -0.16699114       0.09788006       0.00135011
Li      -1.37494201       5.51403804      12.38249533      -0.10737264      -0.23350425       0.86402789
Li      -1.06909795      10.81054523      15.04658663      -0.52511277      -0.23246010      -0.25420953
Li       0.20835684       7.30492801      16.39675864      -0.10223315       0.54223203       0.69675547
Li      -0.49201751      11.79845178      23.24210610       0.08716448       0.26848987       0.70973202
Li       5.17891727      12.60244155      14.59788659       0.22113907      -0.07743387      -0.23790862
P       -2.93787987       7.23692499      15.22023572      -1.00509027      -0.92096197      -0.93688108
P       -2.96631096      12.18549549      21.55399278      -0.09620637       1.02455199       0.25667206
P        2.32777170       9.22662447       9.76060738      -0.28573595       0.60196136       1.13460095
S       -4.53040717       8.22855757      14.27601400       1.13092954      -1.01542461       1.96766270
S        3.25209796      -0.08200547      21.15206018      -2.45596822       1.07501573      -0.06001228
S       -0.85041355       8.69899499       8.69652463       0.62505208       0.00441671       0.63468741
S       -1.07446329       7.94551723      14.68382908      -0.93440865       1.61755800       0.25431193
S        4.20265332       1.29612766      19.98074571      -0.16044254       0.92358566      -0.62170658
S        1.25995723      11.46993650       5.99927631      -0.14600079       0.45653967      -0.44191735
S       -2.76347930       5.24727131      14.80453675       0.27377871      -0.16504281      -0.72241824
S       -3.24658842      10.35454996      20.58611546      -0.04062452      -0.88129554      -0.55511110
S        0.23790511       7.14706108       4.80003752       0.57126072      -1.67935618      -2.05533062
S       -3.39518372       7.55885425      17.20875627       0.64514749       1.02567365      -0.69759428
S       -2.98955021      11.93404118      23.69530828       0.86889120       0.51382531       1.60750071
S        1.14870271       8.91111130      11.49281834      -0.86123486      -1.09964531       1.31063390
S        0.42170075       9.69471047      22.71860181      -0.24617619       1.83988364       1.66231183
S       -3.11011171       6.74254358      11.11869105       1.84243616       1.05998284      -0.68637976
S       -3.61560897      11.53082507      15.61712894       0.06543565      -0.23626026       0.46538007
Cl      -3.58409057       8.24331553      23.70514083      -0.12261350      -0.13103818       0.35444665
Cl       0.40771761      10.13335709      18.46060299      -0.08803436      -1.14704469       0.17970318
Cl      -2.17709329      10.24265464      11.80008989       0.81996773       0.68266342       0.36083526
Li       5.82971172       9.60094686      20.71099964       0.69908424       0.04106420       0.17152694
Li       2.27077015      13.17546094      15.66231031       0.29043661       0.43267573      -0.28422964
Li       8.78880704       6.82042858      11.46351065      -0.21650867       0.13269842       0.07837414
Li       2.80647920       9.95314650      22.91112207      -0.12895430      -0.72593977       0.72553588
Li      10.37623342       5.38465043      17.19806557      -0.37418618      -0.52989278      -0.58796069
Li      10.58977919       8.60976457      13.12039488      -0.86080522      -0.34903709      -0.18172054
Li       6.11860795       8.21129447      23.55421010       0.09271976      -0.13536316      -0.24056152
Li       2.61602748      11.39217084      18.33959489      -0.36164635      -0.65063392       0.19306868
Li       8.97761809       9.85933752      14.69654515      -0.81194991       0.43094383       0.33498507
Li       7.34931889       6.68750754      15.61975240       0.04332877      -0.17617059       0.29526062
Li       8.07435316      11.10382476      20.46980088       0.49578199       0.35099034       0.42075481
Li       2.57211705      10.53399879      15.37924641      -0.00811962      -0.32028434       0.57922383
Li       9.17625436       8.99716241      22.33898750       0.12267632       0.07392057      -0.30116669
Li       3.75196713       4.95542076      13.30780050      -0.51282126      -0.37673724       0.60558951
Li       5.79019539      10.35998470      16.59506707       0.58877777      -0.79708943       1.19088542
Li       7.27996077       7.57119296      19.01706445      -0.18274777      -0.33704465       0.67868457
Li       5.85762926      12.30632172      22.83787037      -0.01187197      -0.40659431      -0.69420397
Li      -5.16823301       6.70352359      12.82224758       0.35517295       0.41453092       0.22880660
P        4.14642993       7.40362907      15.99430031      -0.89530458      -1.25548589       2.91796990
P        3.79312497      12.19127735      21.04579195      -0.21516081       0.55602506       0.77156491
P        7.48078524      10.16920504      10.17458871      -0.71968444      -1.40693774      -0.18483485
S        2.19258266       7.91700009      15.58876728       0.57064871      -0.82618942       0.93008920
S       10.14038973       0.13058573      20.98464700      -0.05147647      -1.57487262       1.58547541
S        5.14275153       9.92585077       6.56114529       0.71339887      -0.64495249      -0.72823930
S        5.31281223       8.69421960      14.99726115      -0.74854886      -0.05844238       1.19271474
S       11.76400630       0.37959231      22.31597245      -0.74281073      -0.43563230       0.26254912
S       -3.52410236       9.96171748       6.34501915       0.52350946      -0.47537518      -1.28028552
S        4.52143193       5.31178620      15.56194525      -1.71558907       0.80287061      -1.50479145
S        3.40793236      10.18775277      20.58098416       0.57286922       0.18123716      -0.01062701
S        8.97813426       6.84705003       6.87836278       1.83271054       0.46399655      -0.97243112
S        4.58543278       7.53393528      18.03893635      -0.06549498       1.03457232       1.38899053
S        3.65904493      12.38468685      23.04276995       0.06985391      -0.44177263      -0.72182600
S        6.97230875       8.06596743       9.80747669      -0.12411190       0.90372606      -0.67779809
S        7.17701194      10.09786860      22.64621594      -0.81410506      -0.33994044      -0.97065043
S        4.13381933       6.92666962      12.03982126      -1.35537370       0.71201106       1.02500351
S        4.11940558      12.07964774      16.67687841       0.37824869       0.67236640       0.41114776
Cl       3.73415429       8.04915582      24.16285236       1.04943866      -0.40513373      -0.87518655
Cl       7.01078819      10.03955035      18.72270220       0.52914920      -0.51046036      -0.58610853
Cl       4.29201669      12.08782235      12.46181731      -0.17122955      -0.28340689      -1.01676658
S        8.94011445      10.53622226       8.70282628      -0.86441061      -0.27160308      -0.30314823
S        1.21251628       0.87847902      11.13091315       0.54664270      -0.03895489      -0.57306771
S        1.08100322      13.25435431      10.43251929       0.35714067      -1.47507731      -1.77806349
S       -1.10469606       0.85853481       7.77701738      -0.80739555       1.30651639       0.40008467
S       -9.30665753      10.86886923      10.22129964      -0.11535467       1.02999184       0.43398769
S       -6.35530436      12.23970806       8.02080076       0.05803447       1.22784607      -0.48898198
S       12.72126415       4.71600167       7.92586350      -0.28898084      -0.28513217       0.09539714
S       -1.80054101      12.72835634       8.25674604       0.86567037       0.68170206      -0.28196673
S        4.74224318      12.49505923       8.92530831       1.02619690       1.58723576       0.63496871
S       -4.65227983       3.60373071       9.58498855       0.02380152       0.71010067      -0.18020688
S       -3.18426710       6.04615484       7.02834085      -0.95664131       0.50771583       0.01190682
Cl      -2.60895019       3.51791280      18.67540303      -0.67264106      -1.49194421      -0.78582605
S       -2.54349883      13.87552843      12.11353390      -0.15959678      -0.86231085      -1.16504955
S       -2.03559120       4.94719092      23.87379114      -0.39003471      -1.23512991       1.22633018
S        4.06068484      -1.14964875      16.96869441      -1.79547703       0.50789654       0.05102505
S        4.18137848      -0.57486894      22.83531352       1.46851661      -0.74854925       0.28899379
S       -2.23209935       2.75472499      11.62190353      -1.69283780      -0.43879254      -0.54201903
S       -0.09908433      -0.98963517      14.82346689      -0.14121905      -0.65336031      -0.41812239
S        5.58687953      13.16636194      20.40815765       1.89267999       0.23019338      -0.71133295
S        7.28879084      13.29509259      15.43553985       0.53209627      -0.38809990      -0.37963644
S       11.38585896       0.40031837      24.33869120      -0.73978298       0.29485793      -0.07207926
S       10.98413712       7.49267692      11.01163957      -0.00546184       0.58215698      -0.12380028
S       12.65237563       5.02419778      15.17343180       0.22083343      -0.46779026       1.69295505
S       11.95952822      -0.05111510      16.94557286       0.40232693       0.80451138       0.65195096
S       12.64048277       0.86712988      15.26306458       0.42011820       1.13346305       0.69756500
S       12.32608630       5.72381387      19.12907596      -0.97023107      -0.55532475      -0.81687148
S       13.24818807       4.00009816      19.70730140       0.37150233      -0.20859160      -1.45942331
S        8.88073506      -0.98339549      14.17180346       0.05194402       1.12166291      -1.05601455
Cl      -6.19958543      10.87276975      18.46456070       0.76158454       0.21181474      -0.41660503
S       -5.53391003      14.36023691      15.26259666       1.09825389      -0.10470537       1.60151515
S       -4.45230153      13.52609671      20.99446931      -0.92646653       1.36166650       2.05737716
S       -6.89313296      10.84900078      22.60423565       1.04475232       0.03363238      -1.01219945
S       -1.09914550      12.98378674      21.02285726      -0.72154809       0.86645514       0.24698884
S        2.17902450      13.13198720      20.14932310      -0.62271398       1.12648338      -1.82229310
S       -6.79969034       7.93918900      11.21284995      -0.82671809       0.21834624      -0.91959921
S       10.89050310       6.17679648      14.82563956      -2.23328683      -1.56950738       1.53317393
S        8.40303536       7.84012146      13.84536348      -0.97720984       1.26902623       0.27289684
S       10.30924539      11.07906047      13.16269760       0.53309440      -2.34142176      -0.51602402
S        7.02050683      11.25261946      14.77643733      -0.63515304       0.12171840       1.01230623
S       10.94517193      10.13823409      22.90550074      -0.46226237      -0.33251040       0.60267817
S       10.46003818       8.72415651      24.36743746      -0.80379336      -1.32685363       1.03631996
Li      -6.27674332      10.73776976       9.67541941      -0.21856087      -0.48360248      -0.22244644
Li      -1.37119554      11.86293680       6.06370960       0.08614224      -0.80516440       0.11427046
Li      -7.32249025      12.69556722      10.37297115       0.06536380       0.58424827      -0.67723644
Li      12.58002478       2.05990070      10.57194917       0.00517721      -0.51144963      -0.25789791
Li       3.22753529      13.93440235      10.10965360       0.59432787       0.43376060       0.00620352
Li       7.99287630      10.70000136      12.67538161      -0.52136476      -0.76437535      -0.22566346
Li      -3.45391160       1.48127402       8.74707200       0.07531755       1.09784750      -0.83709450
Li      -4.70601228       4.26191015       7.32200902      -0.05655026       0.55312314      -0.02197824
Li       1.00980090       0.15098228       8.67114396       0.04473881      -0.03133962       0.00983575
Li      -8.64589541      11.53294048       8.10453565       0.37943464       0.26319287      -1.12023628
Li       9.43462807      -0.96758970      10.37041635       0.11927555      -0.53921025       0.24540518
Li     -11.48344844      10.55450256      10.55502265      -0.61988236       0.20060473       0.02219879
Li      -8.72499126       8.67318885       9.73233903       0.05185407       0.14632871       0.42750373
Li      11.50127809       5.50141706      10.01189771      -0.38664558      -0.34993201       0.08901291
Li      -3.78788325       4.27608767      12.53451485      -0.01756266      -0.79265591      -0.32327378
P       -2.38621583       3.89248448       9.83523203      -1.39363614       1.09400784       0.19401073
Li      -5.18639131       5.89593905       9.88945570      -0.27613750       0.13896791      -0.16884460
P       -5.84542198       8.38286346       9.34855542       0.26852679      -0.12770082       0.74687062
