279
Properties=species:S:1:pos:R:3:momenta:R:3 LayerForceGeomOptConstraint=T E_ref=-1054.9622164179216 step=1000 pbc="F F F"
Li       3.55526206      14.66120126      21.76012317       0.00198433      -0.11557440      -0.24478231
Li       7.50978109      11.61652264       6.93945513       0.13148933       0.52079874       0.27431489
Li       2.51142534       1.99580439      12.61180611       0.01442673      -0.51375738      -0.59729384
Li       3.80504097       5.86308234      22.30518667       0.47366774      -0.03244519      -0.52809400
Li       0.70513697       7.05060823       8.28142913      -0.32400162       0.42415330       0.10169953
Li       6.21184712       2.73250296      10.46970271       0.25551466       0.12364741      -0.05186929
Li      11.69509608       0.78286426       6.87514194       0.11751243      -0.02094674      -0.29534420
Li       2.35070909       5.56395202      10.74388409      -0.13951044      -0.04590776       0.33817382
Li      -1.55647956       1.64475294       5.85455831      -1.03445193       0.64874140      -0.72235865
Li       7.05546991      -0.31646895       8.90118464      -0.13853703      -0.09516514      -0.17327771
Li       5.48147352      12.32529082      10.76923387       0.13937616      -0.06441935      -0.18284613
Li       1.02776464       5.00486770       4.30607248       0.11919895       0.26937753       0.30475494
Li       4.10607693       0.05956427       5.97055860      -0.04305773      -0.29961532       0.80158669
Li       4.06442387       0.99242764      10.39714884      -0.28137452      -0.12296814       0.06870846
Li      -1.90166453      10.78358238       6.83254526       0.20766019      -0.70236544      -0.29033425
Li       1.12250064       1.63452421       6.74172987      -0.02770896      -0.08188801      -0.78044728
Li      -5.47950880      12.27505996      22.84142276       0.42001970       0.90173177      -0.01513153
Li      -1.22440293      13.96851905       9.96414813       0.28997681      -0.28053512       0.79968418
Li       6.72018400      -0.04867860      12.50079800       0.06957337       0.38418409      -0.25580228
Li      12.73644222       4.97830793      21.79552117      -0.00874072       0.48326648      -0.02684507
Li       8.80366362       3.45964317      10.02014504       0.06038336      -0.13049854       0.05527303
Li      -0.80595208       3.22317944       8.17530215       0.25150292      -0.55075002       0.16281929
Li      -6.24783145      10.69539293       6.30334464       0.14402153       0.01360890       0.25553002
Li      10.78356929       5.45615843       6.65531904       0.46046395       0.29997506      -0.17339736
Li       5.71456649       2.08414195       7.17548665       0.07229390       0.75009714       0.08062346
Li      12.46670094      -2.47878305       8.39117201       0.55378422       0.44665520       0.23379627
Li      -7.44744512      10.12676314      11.70249564      -0.01010748       0.10302545       0.32916111
Li       4.40255316       4.02678358       8.66682779      -0.54612717      -0.14511368      -0.15025974
Li      14.57488335       4.29569640       7.38389885       0.40153135      -0.32230018       0.27512497
Li      10.00269807       1.42378429       9.29506148      -0.18160477       0.17014129      -0.61040650
Li      -2.96549437       9.78922773       9.15829091      -0.59954936      -1.00622425      -0.21575360
Li       8.32949432       4.54676064       7.06767567      -0.44104964      -0.66632546      -0.91662893
Li      10.43196099       6.57942683      23.12488036      -0.54832415      -0.07566961      -0.40886890
Li      10.21343346       9.63584186      10.72504348      -0.59447806       0.67534365       0.19488597
Li      -4.40514035       9.69201042      11.71672684      -0.19866109      -0.34302325      -0.04882308
Li      -1.83281598       9.47397364      23.52930031       0.48386456       0.07114929      -0.23777068
Li      -0.34290765      11.10401274      10.35796074      -0.44243401      -0.78501805      -0.09981049
Li       3.65073247       7.81178877       9.37165805       0.05360783       0.11254829      -0.61779149
Li       2.93569672       6.95172959       5.96871108      -0.36449198       0.45322717      -0.67893177
Li       0.85018079       9.33528335       7.22488082      -0.18246566      -0.22473769       0.79758440
Li      -4.22047143      12.91240093       7.39226857      -0.31617476      -0.40171602       0.83307400
Li      -0.68492216       7.51539702       3.16843965      -0.33439173       0.50624885      -1.09140194
Li       6.11333452       5.33471619      10.84053794      -0.53435146      -0.28658205      -0.09767594
Li      -3.24259747      12.07364092      12.90972662      -0.13818245      -0.29356202       1.33763485
Li       2.53521506      11.79662777       9.55949025       0.47799744       0.27791111       0.63998479
Li      -1.14395908       8.41126371      10.93532132       0.52134081      -0.45335047       0.11858080
Li      -1.36147042       5.55350915       5.84414855       0.82079398       0.72201422       0.38755788
Li       0.39354550      12.46122199       7.74937260      -0.09267019      -0.05569143       0.70236389
Li       1.38855594       7.19118956      23.45864279      -0.25445970       0.04002371       0.62310240
Li       1.90082631       2.07352101       9.60128334      -0.04725889      -0.82677779      -0.69174310
Li       3.98792135       8.97483034      13.06756695      -0.38348217      -0.25825223      -0.01464545
Li       9.40578243      10.59413813      23.72939611       0.41343984       0.69583079       0.56158416
Li       5.03149621      10.55602807       8.74047007       0.65972044       0.08679476       0.43029908
Li      -4.85447294       7.77484185       7.34880495      -0.07406880       0.43725524       0.51649052
Li      -2.27090776       8.19867338       6.57974401       0.36460013       0.34361890       0.20666223
Li       3.47536591      10.16216531       5.64659220       0.10345534       0.17403758      -0.40606515
Li       0.53552160       9.69362461       4.55451499       0.82199189      -0.26919684       0.76420459
Li       7.34126170       6.31720026       8.37976230      -1.30731412       0.52973680      -0.15349062
Li      -2.40359236       6.52346914       8.96734768      -0.18680485       0.21422782       0.54644062
Li       3.83020599      12.14679477       6.74312106      -0.06493802       0.09348089      -0.51378943
Li       7.52657599       8.96906951       6.99746715       0.10109204       0.86971041      -0.42264519
Li       6.15299312       7.52021564      12.24532720      -0.59510198      -0.02023556      -0.34596232
Li       2.09874111       3.88824933       6.94488336       0.01613687      -0.03565619      -0.18199122
Li      10.23045695       7.68745753       8.66277486       0.02873106      -0.53800875       0.50638099
Li       2.58557944       2.74983433      20.54568933      -0.67625282       0.07252040       0.48139203
Li      -1.73187860       5.79678167      18.12131713       0.50878120       0.71466622       0.32788673
Li      -4.10475437      13.20583538      10.44716245       0.81381906      -0.07077756      -1.08204661
Li      -0.91408095       3.08549230      22.69244702       0.59523311      -0.02833178      -0.00560481
Li       5.46657690      -0.13338809      18.26273815      -0.61205846      -0.91321761       0.35643018
Li       1.45084581      -0.62866083      13.36372292       0.49804836      -0.77414547       0.84581825
Li       2.20905308       1.08292575      22.89392574       0.34696684      -0.45823611      -0.30369159
Li      -2.10130928       1.61398610      17.55103399      -0.15332048       0.91239017      -0.15840099
Li       1.94122264       4.90662650      15.55357157       0.52409457      -0.31051068       0.21837857
Li       4.05901693       0.24231711      15.59265400      -0.23628524      -0.01212228      -0.58303362
Li       5.18670928       4.30040766      20.47578510       0.49737985      -0.33514205       0.09733171
Li      -0.79025085       1.20217941      10.40131727       0.11646738      -0.24531881      -0.50345384
Li       5.07556429       1.36978092      22.20540617       0.48943665       0.02128955      -0.07820403
Li      -4.01089245      14.67484797      13.70680823       0.51741491      -0.15375967       0.01651370
Li      -0.28830902       3.65879150      17.64630135       0.32018984       0.13731185       0.17999749
Li       2.50457280      -0.14016885      18.28369720       0.17280485      -0.05090707      -0.44711838
Li       1.74081236       3.81475996      24.21811073       0.53274301       0.38825083      -0.11929652
Li       9.48718080       1.33874427      12.56683294      -0.31769438       0.76108505      -0.01363245
P        0.38540525       1.00517271      15.89255944       0.18270089      -0.22106075      -0.49612577
P        0.05544230       5.53918822      21.01511529      -1.25610697       0.17762847       0.13011770
P        3.76707138       3.50014054      10.93526897      -1.59598844      -0.18373975      -0.98699771
S       -1.22490921       2.35936516      15.39955523      -0.71239197      -0.39545330       1.38340569
S       -1.48592393       6.62814540      20.13002766       0.70065666       0.75052407       0.26654420
S        2.80432750       5.97582876       8.09166128       1.57006027       0.46614958       0.71482087
S        2.05049570       1.92410695      14.97606570      -0.56217703       1.37031847      -0.06951360
S        1.75434885       6.70671181      21.11114318       0.00468201       0.20345179      -0.39519906
S        6.75547004       4.14998839       8.73915291      -0.17435306       0.21270698      -1.26639443
S       -4.50442756      13.69334771      15.95552197       2.15797768       1.64163272      -1.01972087
S        0.40319449       3.62920242      20.46639984       1.88856615       0.11635390       0.44429599
S        3.28361851       1.78044955       7.59738002      -2.16310300       1.10624676       1.23850729
S        0.51287887       1.03571606      17.89164973      -0.81321988      -0.13630117       1.30311659
S       -0.41045199       5.55393192      23.20747799       1.33461473      -0.38131021       0.53910904
S        4.95974444       2.44565614      12.42371475      -0.86431242       0.13091575       0.88681616
S        3.80959132       3.52397678      22.67723271       0.25078856      -1.76938606      -1.07361231
S       -5.67479625      11.65128575      11.92220146      -0.74734877      -1.26259977      -0.42552148
S        0.37035376       5.74955655      17.19622361       1.10965291       0.33053418       0.22608548
Cl       0.46919492       1.79090602      23.95512191       0.26241261      -0.70105201      -0.20651787
Cl       3.77735814       3.84801386      18.56519931       0.06189883      -0.00272774      -0.08432797
Cl       0.75683423       5.39379250      12.96175517      -0.22908886      -0.30943328       1.10138427
Li       8.45351769       0.18388196      22.96921037       0.09838394       0.10083276       0.23349777
Li       5.58713148       5.17383125      17.55373797      -0.11446805      -0.04825729       0.08531083
Li       9.02298502      12.74573092      14.38514927      -0.09114077       0.29261555       0.42172836
Li       5.80098870       3.60410891      23.77110314      -0.15730138      -0.09291662      -0.02627953
Li       5.47281783      13.15206016      17.85137935      -0.09884585      -0.17945027       0.25576128
Li      10.66630530       4.18190381      12.86250261      -0.37904429      -0.00733748      -0.28789472
Li      11.43595187       2.10162442      23.89290573       0.11740971       0.25915290       0.01028535
Li       8.25482021       3.03733266      17.21116743      -0.18021512      -0.14984710       0.68564475
Li      12.66831191       6.81999922      13.24682173      -0.06509763      -0.19975089      -0.86120123
Li      11.07082480      -0.53255525      15.14308230      -0.08635808       0.01949195       0.15469615
Li       9.84121201       4.53430445      20.83389392       0.06242601      -0.09471897       0.26220566
Li       6.58512267       3.52752445      13.88670161       0.14890235      -0.03847797      -0.72020551
Li      11.64606465       2.29294336      20.97454253       0.08216837      -0.08941771      -0.17789243
Li       2.10116339      11.91021021      12.70391192       0.63996519      -0.57069505      -0.25843871
Li      11.38397134       2.97597175      15.88695604       0.06985807       0.25765120       0.15948048
Li      10.41343565       0.61247645      18.34880577       0.33307353      -0.30113048      -0.26600387
Li       8.60584877       3.67099342      23.47044783      -0.81887676      -0.99379035       0.92395213
Li      -0.22458734       2.25959453      13.30300200      -0.19514704      -0.04243622      -0.11284530
P        8.01005720       0.76422249      15.41576742      -0.98809206       0.29713729       0.46088990
P        7.58701533       5.81236120      21.81492466       0.90876718       0.21259182       1.73178211
P       12.06286652       3.27459047       8.37770852       0.06426783      -0.62591400      -0.88252316
S        6.10222223       0.87645025      14.66577739       0.38305732      -1.38139687      -1.10653635
S        5.79836229       6.60191534      21.02180555       0.90732639       0.88578116      -0.12549713
S       10.26486681       2.81851896       7.27099378      -1.34025033      -1.31456884      -0.47816642
S        8.84324338       2.67267404      14.74086591       0.14786284       2.05960741       0.48733092
S        9.02438016       6.82239337      20.80569014      -0.13200718       0.20902108       0.26872999
S       -0.15812721       3.58455749       5.90135905      -1.53137089      -0.22740544      -0.12527551
S        0.59816816      12.36699580      14.60076533       0.40075667      -1.64333746      -0.33427553
S        7.58518507       3.83553456      21.36524423      -0.29670356       0.16903971       0.72015658
S       11.47449810      -0.55228883       8.77429298       0.59649800       1.60684443       1.59755860
S        8.02207325       0.55946179      17.48148423       1.49273500       0.70236743       0.09368113
S        7.95658407       6.06114679      23.90354110       0.78617828       0.30649513       0.53885204
S       11.08192030       2.92156269      10.89043372      -1.74742951      -0.26837977      -0.35704277
S       10.99242988       4.20262557      23.00115520      -0.01600964       1.25963038      -1.45564102
S        8.20946358       0.85216201      10.66771651      -0.75987373       0.43934521       0.17431239
S        7.86244153       5.48993036      17.61387621       0.48441507      -0.54245186      -0.15774164
Cl       7.18187155       1.62013424      23.88914347      -0.81267971      -0.18025375       0.76256405
Cl      10.67298554       2.85715225      17.95006207       0.90322284      -0.21354648      -0.48132973
Cl       8.00194840       4.66607891      12.07289689      -1.52382844       0.02898754       0.05152334
Li      -1.65585840      10.95554987      19.12024969      -0.21200445      -0.95304911      -0.58995529
Li      -5.74920122      10.87932300      20.56916837       0.18497228       0.62550366       0.33100234
Li       1.94851793       7.30286791      12.80042849      -0.10397851      -0.89342306      -0.47004093
Li      -4.86433122       9.36972169      23.01730902       0.05204554      -0.73599382       0.19074163
Li       2.45342070       5.79752245      18.56984965      -0.22876658      -0.33682468      -0.10070459
Li      -2.78004916       8.41261028      13.12579679       0.92941532       0.29571239       0.29880611
Li      -2.90174729       6.35862084      22.12496103      -0.07369508      -0.26435007      -0.09562798
Li      -4.67801065       9.90180156      17.20352178      -0.37785480       0.53952932       0.03838368
Li      -0.28799878      13.50653574      12.57674045      -0.37649409      -0.83559997      -0.18293474
Li      -0.84200736       5.01696076      15.41769359       0.05496751      -0.54334271       0.56792991
Li       1.08441258      11.34221461      21.12303418       0.41501344       0.24894046       0.14143313
Li      -5.99147115      11.84972129      14.30995682      -0.51621600      -0.06648412       0.28813234
Li       0.17320396       8.49007071      20.45767729       0.27829872      -0.39701437       0.15293500
Li      -1.43250144       5.18079532      12.04500830      -0.06120624       0.34314784      -0.22337242
Li      -1.40389289      11.09125000      15.29147851       0.61766906       0.53822491       0.73573543
Li      -0.18977197       8.17823985      17.18240233       0.13427407      -0.23277273      -0.22808589
Li      -0.65692062      11.61925003      23.01228242       0.14659858       0.03037457      -0.25122644
Li       5.47354711      12.29919229      14.87365522      -0.36561503       0.39945212      -0.42313301
P       -3.14475525       7.44431380      15.63346072       1.05464475      -0.28712616       1.27988948
P       -2.94099751      12.13519009      21.45573829       0.07946345      -0.23604558       0.15653233
P        1.67203413       9.36664616       9.66598337       2.61154464      -0.57925641       0.88180938
S       -4.63859707       8.53367796      14.57705949      -0.24570324       0.15599115      -0.96669157
S        3.27837360      -0.58579406      21.24149643      -1.04874027      -0.80720942       0.21008477
S       -1.08267490       8.58116057       8.56584552       0.36932498       1.28061419      -0.43088040
S       -1.29536744       8.25146603      15.00730960      -0.14763726       1.69589826      -0.57743265
S        4.09637348       0.91859725      20.04155553       0.03332657       0.19060985      -1.32192344
S        1.46749612      11.27622256       5.99032098       0.63811473      -0.65881429       1.28572755
S       -3.20346550       5.47179878      15.10616436      -0.31728967      -0.49966844       0.47896531
S       -3.43014578      10.27730016      20.60867845       0.31174385       0.27239729       0.08032259
S        0.44107566       7.48499079       5.23579318       0.12641614       0.70931708       0.34711369
S       -3.07804559       7.90837031      17.59898112      -0.10363347      -0.64648642       0.50206254
S       -3.01044726      11.56530353      23.53536112      -0.25265441       0.21765650      -0.89236318
S        1.08166868       9.23133119      11.70229695      -0.46449733      -0.19038711      -1.82802162
S        0.24955271       9.57586133      22.74370870      -1.37548139       0.77859797       0.27604439
S       -3.21492137       6.83138481      11.47248067      -0.37836228      -0.28920326      -1.06753647
S       -3.59851177      11.63064757      15.54809809      -0.28436987       1.21647659      -1.81732020
Cl      -3.41542666       7.90607458      23.65870165       0.45240866      -0.43753169       0.23268822
Cl       0.44904563      10.12165590      18.59663983       1.02873852      -0.13318787      -2.02951159
Cl      -2.24886287      10.35739220      11.77326740      -1.72127831      -0.12284999       0.98319747
Li       5.82861952       9.42744176      20.94871970      -0.17161566      -0.13658881      -0.07098871
Li       2.17394796      13.45796818      15.95931050      -0.12673977       0.26489949      -0.42224695
Li       9.45223997       6.94608262      12.13170824      -0.43496791       0.51034422      -0.07752539
Li       2.66524335       9.82630446      23.15276220       0.14762969      -0.17643707       0.02014040
Li      10.33086111       5.54912763      17.84631816      -0.53681832       0.15169147      -0.02611766
Li      11.25607880       9.24103439      13.07576267       0.07284266      -0.03399198      -0.59576049
Li       6.16934524       7.95361181      23.61864157       0.29098750      -0.47241732      -0.64950252
Li       3.02234978      10.71082870      18.51587947       0.08438863      -0.28979146       0.31446127
Li       9.07398635      10.04880136      14.68662116      -0.22295036       0.36069712      -0.19959037
Li       8.65225077       5.82057779      15.49885631      -0.13695482       0.09523903       0.29265076
Li       7.84904154      11.09988475      20.87978681      -0.10427834       0.04872973      -0.30762576
Li       2.07551069      10.80864199      15.81263885      -0.16970298       0.02872915      -0.33962459
Li       9.25449107       8.82313106      21.73361767      -0.39231542       0.04403581      -0.18698323
Li       3.66762813       4.89177032      12.88413696       0.37498182       1.31400645      -0.05059111
Li       5.69253089      10.12400154      17.20638373      -0.26236803       0.56675544      -0.45948261
Li       7.04037205       7.25289086      18.94255458      -0.30482483       0.14457721      -0.83472792
Li       5.94078604      12.05127887      23.25480606      -0.04779473      -0.17594686      -0.24836039
Li      -5.22049334       7.15686251      12.78339120      -0.14911302      -0.12177875       0.58110787
P        4.21150191       7.37433717      15.48616491       0.97946992      -1.86292403       1.32158331
P        3.79160788      12.23884190      21.02309189      -0.06904456       2.48263369       1.03297697
P        7.69161507      10.05596987       9.39169020       0.92344278       2.13410139       1.41233385
S        2.52994569       8.44242012      15.08424446      -1.05581869       1.11678261      -0.00510237
S        9.83364402       0.49344070      20.74671361       2.25047806       0.62802360       0.89912331
S        5.55303167      10.24657895       6.58961077       0.82686845      -1.37382495       0.64645846
S        5.81062137       8.30129754      14.54853563      -1.39972775      -0.35544077       1.15122640
S       11.45445432       0.07313280      22.18722268      -1.42013709       0.72510780       1.37870313
S       -4.14531184      10.02928415       6.95961119      -0.32644291      -0.98851303      -1.82393629
S        4.22505034       5.33079651      15.04741208       0.75568221      -0.22209723      -0.06575668
S        3.61240240      10.10325237      20.73243733       0.79612041       0.40843773       1.10849112
S        8.89549555       6.84105072       6.86141556      -1.03334792       0.12594448       0.92962530
S        4.28016148       7.46937078      17.52342414      -0.62796727      -0.30449488      -0.51306869
S        3.52880391      12.32348430      23.13751710      -1.98770843      -0.81945828      -1.07076266
S        8.00944676       8.04504738      10.26103795      -0.46806466      -1.13419632      -1.72249970
S        7.16143055       9.89442597      22.98338157       0.55211198       0.75629377       0.38885503
S        4.05764239       7.04932786      11.60864843       0.92593669       0.76855203      -0.38930556
S        3.99433501      11.86042263      16.81148703       0.22602255      -0.13169493       0.28659483
Cl       3.80548443       7.88907566      23.77842081      -0.86180892      -0.04595044      -1.31730411
Cl       7.13916499       9.80087824      18.97672603      -0.76617612       0.27225461       0.92993699
Cl       4.45664881      11.53051873      12.83114402       0.99471879      -0.09246154      -1.33599665
S        9.27574808      10.49523209       8.11341191      -1.70981025      -0.11122265       0.57132818
S        1.57109996       0.33385681      11.17118036      -0.66129149       1.17230711      -1.21681759
S        0.98755397      13.16938207      10.48420952       0.14504930       0.08391373      -0.66343893
S       -0.80397700       0.73250272       8.02511145       0.12138252       0.45229798       0.11604651
S       -9.06866807      11.03983900      10.34873597       0.10970228      -0.24147134       1.36256426
S       -6.43795638      12.70771693       7.97945835      -1.36820569      -0.83254654       0.37759042
S       12.46080214       5.38945941       8.18041731      -1.75666727      -1.04672786      -0.98069609
S       -1.87322833      12.94700244       7.87458977      -0.20189611       0.33151492      -0.06849368
S        4.53021437      13.15092984       9.01574361       0.66626644       0.42118477       0.61040043
S       -4.72199397       2.95317812       9.42052558      -0.33574585       0.51817327       0.51841270
S       -3.45128863       6.09906158       6.90219204       0.99694414       0.90186636      -1.15004125
Cl      -2.48596631       3.65235919      18.67081685       0.88589276      -1.62484047       0.12618477
S       -2.54330166      13.98674586      12.00021143      -0.39195288      -1.29918701       0.73145311
S       -2.27818926       4.64656211      23.55714546       0.36359470       0.55889951      -0.57250332
S        3.99890976      -1.43088524      17.11001748      -0.44183974      -0.47316542       0.54513284
S        3.84920993      -0.46973473      23.24600714       0.50855650      -0.81598601       1.21666755
S       -2.51458878       2.80327517      11.79894915      -0.68710768      -1.22877034      -0.04475885
S       -0.07241317      -0.71940030      15.12163350       0.65552343      -0.59981480      -0.24103625
S        5.73021332      12.82306674      20.57063174      -0.75765922      -0.39418334      -0.37650272
S        7.88601231      13.37106580      16.38960061       0.60311286       0.66676543      -1.68847250
S       10.66842772      -0.15867022      24.11167688       0.07752659       1.63422914       0.64946865
S       11.51984212       7.54423766      11.23647879      -0.21470226      -1.30964807      -1.05439149
S       12.06246893       4.99030735      14.57330967       2.41330296      -0.48334732       1.15695381
S       12.40041906      -0.00798248      16.91855991       1.11310385      -1.51062357      -0.33745494
S       12.65542238       1.19931834      15.22588679      -1.11091279      -1.86954439      -0.87685574
S       12.30012433       5.66906530      19.66032323      -1.41442659      -0.07002884      -0.15310145
S       13.18255077       3.84866623      19.90623524      -0.58046954      -0.55086506       1.22063461
S        8.77484769      -0.67570357      14.16389979       1.65300648       1.01535388       1.54892145
Cl      -6.43350735      10.04282327      18.58452844       1.33526141       0.65762440      -0.58085728
S       -6.18119410      14.00865652      14.78527729      -0.36520281       0.47435821       0.76358198
S       -4.37361693      13.44934352      21.07560247       0.43417752       1.02026838       0.08825230
S       -6.79351176      10.61902992      22.49755682       1.26131848       0.85426206      -0.21286876
S       -1.01853425      12.68616127      21.00846046      -0.62258523       2.46886225      -1.11845782
S        2.40046012      13.26076275      19.89145422      -0.20042745       0.23831902       0.27155494
S       -7.04587885       7.66372786      11.45099001       2.08486948       0.01190446       0.88272742
S       11.10364557       6.71779494      15.48563909       0.09445736       0.05425412      -1.23167578
S        9.45198929       7.69426728      14.45935982      -0.79239798       0.25113446      -0.63994443
S        9.88849334      11.20902976      12.60284051      -2.30383324      -0.05762421      -0.70451110
S        7.52088877      11.34811921      15.85994339      -0.12470546      -0.76433616      -0.95896415
S       10.84575930      10.54373201      21.62229317       1.72320150      -1.88225545      -0.44314026
S       11.01386793       9.08239384      23.12641745      -0.87808994      -1.40417789       2.55937532
Li      -5.62349556      10.69186135       9.05875822       0.20379047       0.03358832       0.04072320
Li      -1.99990324      14.43423263       6.11031550       0.14756722      -0.45832564      -0.01110685
Li      -7.20272555      12.55902752      10.47822532       0.16490265      -0.19275182       0.59415571
Li      12.50786185       1.04267928      10.26561273       0.67624536       0.07585084      -0.49866829
Li       2.76019527      14.52813395      10.06887926      -0.33662402       0.49412381       0.66515500
Li       8.15972732      11.19432622      11.34574633      -0.34373107       0.22933999       0.09735279
Li      -3.12143895       1.16940203       8.44762027      -0.07415859      -0.32951169      -0.39632878
Li      -4.74841241       4.14897050       7.32480370       0.80720449      -0.15477265       0.11793577
Li       1.47655543      -0.20542297       8.88582331       0.66319118       0.72112828      -0.57407098
Li      -8.59950372      12.36077475       8.58831730       0.01160206      -1.16176679       1.03144954
Li       9.71894701      -1.18942608      10.27221824       0.15399521       0.30966398      -0.55418508
Li     -10.89549743      11.73091625      11.40692319       0.00076162      -0.47272952      -0.59234339
Li      -8.50967959       8.90749746       9.65461791      -0.15840113      -0.29356639       0.11905902
Li      12.24980416       5.41076733      10.50962233       0.36321746      -0.76073941      -0.18033397
Li      -3.90794117       4.64412837      12.78561465       0.27830227      -0.08891358       0.32571493
P       -2.67315009       3.54975148       9.81423859       0.24151160       0.51793096      -0.10922687
Li      -4.74129077       5.66697353       9.76442709       0.12559170      -0.62230527      -0.21067124
P       -5.80504980       8.31773182       9.85314050      -1.49128795       0.85713795      -0.12155453
