279
Properties=species:S:1:pos:R:3:momenta:R:3 LayerForceGeomOptConstraint=T E_ref=-1052.7745489840825 step=900 pbc="F F F"
Li       3.47390305      14.62033729      21.82428614      -0.17154961       0.36634088       0.09451458
Li       7.68638451      11.28147469       7.05465102      -0.36285700       0.39841066       0.36799037
Li       2.87931917       1.77144969      12.60657698       0.59327120      -0.02214384      -0.45184123
Li       3.76587629       6.09644367      22.49997484       0.38448088       0.32117949      -0.27907807
Li       0.34930479       6.62313834       7.79668405       0.69275350       0.73233659       0.73097602
Li       6.60479214       2.93291826      10.62868937       0.39496454      -0.46658717       0.56157171
Li      11.29780486       0.95680697       6.99311208       1.09605989       0.65403901      -0.59747576
Li       2.47540490       5.52521408      10.66392096       0.76392808       0.63662773       0.68418076
Li      -1.09178285       1.24068375       5.64323988       0.13845164       0.45240557       0.18295905
Li       7.19016362      -0.31206868       8.83084117      -0.11232846      -0.65547478      -0.19564969
Li       4.49848460      13.10132492      11.18618621       1.18064400      -0.79849234      -0.12842505
Li       0.87755146       5.04284879       4.72363469       0.25172213       0.65867325       0.30447184
Li       3.53513215       0.34652670       5.65561670       0.53487799      -0.20972295      -0.07520395
Li       4.01459943       0.74293915       9.81722229       0.50199394      -0.44872068       0.54395500
Li      -2.33672701      11.31120947       6.03911520       1.09105140      -0.89774972       0.53356143
Li       1.26212998       1.29395691       6.99989689       0.68480463       0.68430408       0.38759916
Li      -5.58540646      12.42050501      22.91643173      -0.59391236      -0.40957033       0.47141562
Li      -1.05625159      14.11777279       9.78495214      -0.06569683      -0.06757213      -0.09139955
Li       6.50506637       0.42599033      12.46522284       0.41332910      -0.86968420       0.18354605
Li      13.06165468       4.97404302      21.94303480       0.16248548       0.02480214       0.07441475
Li       9.12866923       3.78825160      10.00529045       0.04521916      -0.26863071       0.49808610
Li      -1.32205043       2.86460214       7.97394749       0.35375484      -0.11914549      -0.52138083
Li      -6.32677297      11.02924242       6.33032853      -0.33534477       0.26312611       0.18308762
Li      11.11508557       5.56148768       6.68590010       0.24461030      -0.19243459      -0.14204248
Li       5.75572939       2.41423268       6.96875681      -0.30480730       0.18449940       0.32128521
Li      11.73230274      -2.62321591       7.82619546       0.37679626       0.10186998       0.41840158
Li      -7.41492397      10.27879597      11.47346678      -0.54690813       0.38433853       0.52598113
Li       4.54571044       4.18295869       8.45790379      -0.19166043       0.37474491      -0.37920673
Li      14.61873093       4.23295595       7.15904767       0.12298511      -0.20814931      -0.10055264
Li      10.01846375       1.28172462       9.32068164      -0.64737114       0.06240627      -0.61588980
Li      -2.44586581      10.41662380       8.84498851       0.43614187      -0.40743715       0.16739638
Li       8.29621099       4.45291769       6.88007479       0.19014741       0.30376567      -0.19358627
Li      10.64356203       6.58394711      22.76811703      -0.43417306       0.10920507      -0.55337309
Li      10.58428131       9.38921873      10.79026946      -0.21164519       0.64858697       0.16603165
Li      -4.35597367       9.78902843      11.55117427      -0.02158504       0.17012733       0.08605290
Li      -1.85550764       9.19081133      23.71741071      -0.12323837      -0.71404571       0.47643255
Li      -0.13881145      11.20814245      10.57684303      -0.33150425       0.65107146       0.60339974
Li       3.43287818       7.82672504       9.45718758      -0.50259864       0.32677804       0.50230330
Li       2.52652422       7.15206801       6.28833979      -0.41969190      -0.49105016      -0.39108004
Li       0.60837634       9.62534955       7.03172319      -0.32678827      -0.48066564      -0.01962573
Li      -4.29327648      12.34372258       7.58704705       0.45828791      -0.10010779      -0.04418335
Li      -0.94377137       7.02879296       3.30899586      -0.15347585      -0.10876320      -0.24456159
Li       5.56082254       5.61309348      10.38815892      -0.24040120      -0.80801976       0.03787421
Li      -3.07928973      12.34281306      12.07488523       1.03690144      -0.43372451       0.92696625
Li       2.28808467      11.45894945       9.23312361       0.04636752       0.36018332      -0.22959777
Li      -1.01394888       8.09889199      10.95517200      -0.09058161      -0.04408447      -0.18402096
Li      -1.80235488       4.73360229       5.78404446      -0.35392256       0.15162459      -0.49009336
Li       0.34509402      12.59131957       7.30808417       0.26238625       0.34531213      -0.18059473
Li       1.29495854       7.74253863      23.81423586      -0.06406869      -0.03607049       0.12801750
Li       1.68330447       2.43650293       9.55145283       0.05160755       0.25287891       0.32443765
Li       4.36048364       9.33708151      13.21085320       0.21824809      -0.11802313      -0.65553893
Li       9.09666970      10.60231791      23.73950777       0.73420381       0.12834004       0.33591404
Li       5.32360955      10.88738801       8.39106927       0.56146358       0.05796047      -0.11681814
Li      -4.67525189       7.69156441       7.65822143      -0.16212586      -0.60399851      -0.25330127
Li      -2.03320686       7.86193108       6.48328996      -0.50709745       0.23476265       0.34269115
Li       3.39418423       9.95731452       5.52821453       0.06922324       0.54951444       0.22036206
Li       0.75766518       9.59345924       4.39199643      -0.15142296       0.61011221       0.25011320
Li       7.71095110       6.45739840       8.51220823       0.48045525       0.24961839      -0.68768135
Li      -2.19084723       6.05619381       9.24518073      -0.56355791      -0.56188486      -0.04920745
Li       3.76806980      12.18089192       6.45832992       0.11746978      -0.59764220      -1.11506489
Li       7.05261735       8.52532441       6.34270466       0.17729701       0.27686514      -0.00446944
Li       6.44770305       7.86489414      12.23868618      -0.50786177      -0.57740400      -0.85620844
Li       2.49442691       3.97162043       6.84429900      -0.61627518      -0.44239916      -0.21680938
Li      10.19315831       8.16680215       8.10067377       0.38835455       0.11712511      -0.09870465
Li       2.61408678       3.30428753      20.59556248       0.12661059      -0.28465867      -0.20624016
Li      -2.42007151       5.00963189      17.48345095       0.26997850       0.50067705      -0.09170196
Li      -3.89765514      14.33366104       9.82754854      -0.96984032      -0.14688036       0.73425174
Li      -1.25134905       2.68056543      22.58531141       0.13165258      -0.10864914      -0.39326343
Li       5.63849265      -0.46612959      18.59361368       0.16862282       0.69854238      -0.64061549
Li       1.63753696      -0.33145056      13.33005508       0.64258953       0.05259237      -0.09757107
Li       2.44611968       1.28084796      23.36029231       0.08504750      -0.04955210      -0.57961383
Li      -1.73507883       1.75758244      17.49658162      -0.50078299      -0.51506330       0.46959527
Li       1.79208696       5.04594074      15.14195430       0.05482530       0.33691037      -0.30409881
Li       4.06129305       0.28658869      15.75699600       0.32164815      -0.24532981       0.13049219
Li       5.09837304       4.45291397      20.49979438       0.00931593      -0.87260668      -0.01293172
Li      -1.09580480       1.17805268      10.72627227      -0.61679803      -0.45403847      -0.02798957
Li       5.07838924       1.35549739      22.73728237      -0.29799233       0.04002957      -0.17142724
Li      -4.13076596      14.46032985      13.64675518      -0.48559623      -0.26998585       0.02880305
Li       0.39751689       3.76684966      18.21701153      -0.92552946       0.38824315      -0.08593754
Li       2.87147218       0.01742902      18.38888516      -0.39790942      -0.24809689       1.12574145
Li       1.36372875       3.75560319      23.45348985      -0.73679655       0.36559417       0.42785368
Li       9.80701240       1.02741133      12.48275658      -0.57401572       0.29901373       0.24594849
P        0.23925374       0.99963969      15.69858130      -0.83677639       0.55052470       1.61607950
P       -0.06981146       5.69895236      21.04598386       1.78889703       0.15361464       0.31435609
P        3.93692361       3.36776469      10.73465624       0.69163211       1.64611629       1.80056143
S       -1.02966074       2.57905426      15.31099824       0.38166696      -1.25761735       1.37932748
S       -1.61180536       6.78523866      20.40577490      -0.00038076       0.21650967      -1.35000147
S        2.67706841       5.92822055       8.22759483      -1.40523076      -0.70664098      -0.35740114
S        2.08673694       1.67901411      14.75087668      -0.73535792       0.72420159       1.17378686
S        1.77693932       6.50849368      20.71325542      -1.54115686       0.35190406      -0.24679010
S        6.85567008       4.24901709       8.74495277      -0.67003701      -1.48366284       0.40938223
S       -4.99015807      13.36732677      16.49207242       0.91271777       0.27051478      -1.69365042
S        0.12447438       3.68363067      20.52763397       0.28214132       0.75427430       0.11629486
S        3.57785097       1.80254717       7.62024068       0.63590873      -2.67338580      -0.73708200
S        0.61375036       1.30250128      17.80018365      -1.21889509      -1.37531777      -1.11585034
S       -0.29634479       5.46699466      23.37010533      -0.45058445      -0.59090045      -0.51033512
S        5.00415875       2.55932663      12.39295987      -0.57731396      -1.07704538      -1.21048598
S        3.65883440       3.65863620      22.80390713       1.06369931       1.15500174       0.16914947
S       -5.36838228      11.76799176      11.63864251      -0.39269576       0.08715653       1.73848847
S        0.31602189       5.63933569      16.93982095       0.94175372       1.01888013      -0.01429612
Cl       0.44010029       1.90460388      24.13995175      -0.45577163      -0.50303496      -1.15626191
Cl       3.78199740       4.11884470      18.61832087      -0.38019444      -1.62786634      -0.17266452
Cl       0.93220282       5.17802363      12.91849762      -1.04758989       0.51146436      -0.19639971
Li       8.59366746       0.19278640      22.96456050      -0.35505943       0.17341509       0.33245834
Li       5.33805374       5.45427106      17.44652418      -0.47070102      -0.22893511       0.07735084
Li       8.91480332      12.81081026      14.57550794      -0.24899266       0.13153151      -0.04671954
Li       5.73759048       4.16606750      23.95836179       0.16248660       0.10825237       0.63614309
Li       5.63927976      12.93263979      18.12799395       0.44287540       0.57119384       0.60327092
Li      10.03068996       3.78646119      13.20949238       0.46020885       0.01014817       0.31013863
Li      11.56352233       1.86081979      24.21351865      -0.16920625       0.26094180       0.46740578
Li       7.91112692       2.91948435      17.61138515       0.03507818       0.74347005      -0.48438511
Li      12.50524525       6.54408267      13.19854807      -0.50409170       0.11635387       0.68091175
Li      10.94517999      -0.54605800      15.12168681       0.72218526      -0.30708004       0.29544400
Li      10.38362363       4.49259349      20.85942713       0.51664844       0.51774933       0.38069418
Li       6.78867784       3.26451198      13.83454604      -0.41591233      -0.29134467       0.28363758
Li      11.68156071       2.24799988      20.95412546      -0.31528306      -0.37824006       0.31926383
Li       2.01742570      11.99787924      12.72048229      -0.14451970       0.18230812      -0.21376300
Li      11.38024537       2.86809256      15.90876066      -1.15780788      -0.14912206      -0.52700064
Li      10.07736734       0.85720876      18.18472298       0.58027395      -0.30368768       0.11929578
Li       9.00898831       3.44721597      23.13991364      -0.38810046      -0.43292210       0.54023899
Li       0.05643617       2.44654504      13.15476340      -0.66026148       0.48497048      -0.53977337
P        7.90497926       0.72295583      15.22663182       0.74055437      -0.48888005      -0.44393199
P        7.48199812       5.86451557      21.58594391       0.75095570       1.29701239       0.91219985
P       12.34431836       3.46032754       8.66094659      -0.89272507       0.40243321      -1.75129024
S        5.97921240       1.35146934      14.91385458      -1.70927694      -0.47122974       0.15980130
S        5.65667839       6.69565621      20.95438955       0.12570403       0.26977939       0.88811050
S       10.47363947       3.10560779       7.56936752       0.43188100      -0.74127722      -0.80567501
S        9.07858875       2.24039369      14.63933038       0.19882301      -0.02969142      -0.81423260
S        9.08721125       6.78717808      20.70403249      -0.17477678       0.58248518       0.89668510
S        0.32693645       3.34006814       6.07046671      -0.80852852       0.18202226      -1.03242295
S        0.82187792      12.21721722      14.51770911      -1.39870121       0.31926473       0.74289435
S        7.54286617       3.83493623      21.05025681      -0.01076980      -0.41206640       0.99497317
S       11.00188868      -0.72126135       8.90321965       0.69277386      -1.20150484       0.00580863
S        7.95062594       0.40806185      17.19660523       0.39396880       0.01711513       0.41361963
S        7.59475481       5.94963569      23.65912518       0.11327251      -0.02092963       0.19604070
S       11.45887929       3.00060176      10.95794853      -0.54021140       0.80775113      -0.25238723
S       11.23971420       3.93405699      22.92507187       0.03537899       0.06546913       0.80421969
S        8.36450431       0.76182343      10.71535724       0.94612241      -0.56638883       0.35917748
S        7.63739594       5.39092183      17.48890581       1.78866436       0.20337977       1.22659546
Cl       7.06579307       1.84163050      23.82907723       2.33910527      -0.16847337      -0.16884520
Cl      10.47059253       3.25872471      18.09367222       0.50031094      -1.14623891      -0.17051404
Cl       8.19627947       4.90010868      12.16529973       0.87112672      -0.10602249      -0.69826923
Li      -1.76187468      11.13776121      19.10796272      -0.01249659      -0.16136889       0.36629870
Li      -6.01330337      10.85099774      20.43656291      -0.53698198      -0.16794017      -0.01385575
Li       2.03610951       7.68846554      12.62771919       0.01690264      -0.58424922      -0.12302074
Li      -5.04017104       9.48539167      22.91274767      -0.04262699       0.56623007      -0.17469948
Li       2.47464094       5.89987991      18.10087849      -0.16354570       0.59658309       0.85424331
Li      -2.59046183       8.51299932      13.15235192      -0.70029243      -0.14447137       0.03000263
Li      -3.12523416       6.24101268      22.19967235       0.94361164       0.14554269      -0.36902174
Li      -4.74498390       9.71696375      17.47776293       0.11904710       0.00048552      -0.33989855
Li      -0.36155298      13.64575031      12.65879734      -0.18316602      -0.57332083       0.49818534
Li      -0.89108386       5.80775435      15.01503658      -0.05852900      -0.49071179       0.34653214
Li       0.83060159      10.96098915      20.87354601       0.44987113      -0.75794453      -0.45756416
Li      -5.90419591      11.75052972      14.04393764      -0.13763367       0.19193972       0.17674385
Li      -0.10012358       8.59285317      20.95794453      -0.03268387      -0.00124168      -0.05832557
Li      -1.08258011       4.96949237      12.04350741      -0.81974214      -0.01063126       0.26507986
Li      -0.91006779      10.59714780      14.66321555       0.10506246      -0.21477497      -0.36885832
Li      -0.60192301       7.79029171      17.54110047      -0.17573857      -0.08582539       0.08463531
Li      -0.58370513      11.97432668      23.27782722       0.32576112      -0.26500241      -1.15855005
Li       5.68790589      12.30154782      15.43804780       0.33191156      -0.75778171      -0.88126816
P       -3.06633758       7.57717505      15.55601100      -1.04577474      -0.33889462      -0.47213554
P       -3.06894399      11.89616122      21.61741836      -0.34374513      -0.23648320      -1.14538866
P        1.21139501       9.10279487       9.48865610       0.42699630       0.60065941      -0.33473617
S       -4.44718757       8.63159163      14.43095123       0.10514011      -1.79378715       0.11949577
S        3.19828135      -0.33139255      21.52156920       1.43170575      -1.03367272      -1.49786036
S       -1.02673745       8.49106302       8.46008077      -0.59028230       0.14497843       0.19241212
S       -1.08567180       8.17218936      14.96774995       0.83066677       1.19744244       0.29621758
S        4.50718607       0.80899377      20.40489621      -2.00216744       0.23598888      -1.23433662
S        1.60579709      11.30322173       5.93142374       1.99581838       0.02627418      -0.44977488
S       -3.14322631       5.50954479      15.21310579      -0.73908740       0.93479316       0.20944607
S       -3.39379477      10.10025483      20.53137975       0.47142690       0.70188575      -1.27403611
S        0.34861424       7.43232298       5.27004672       1.37460492      -1.54792817      -0.13882452
S       -3.12875334       7.81821091      17.50638672      -0.35419285       0.70152378       0.95906616
S       -2.95678487      11.59955940      23.65636984       0.35107842       1.40781694       0.62937539
S        1.08883191       9.37087280      11.60641366      -1.06520229       0.12356406       1.27511777
S        0.45400338       9.74760002      22.84936145      -0.59544355      -0.63520120      -0.16684031
S       -2.97094183       6.69770179      11.72558320       0.36250551       1.09425495      -0.19313058
S       -3.98239260      11.62355094      15.98968364       0.92462610      -1.59995388      -0.92673289
Cl      -3.69020654       7.82391624      23.70885285       1.78542715       0.33905404      -0.29170443
Cl       0.17935078       9.72619058      18.71574689       2.39492842       1.80515760       1.30018839
Cl      -2.25229186      10.35537962      11.55885001       0.43906223       1.71261185       1.36389048
Li       5.74277444       8.94717988      20.89932635      -0.86604627      -0.73633380      -0.00923452
Li       2.37121421      13.45432917      16.14068738       0.34974366      -0.26084185      -0.08904836
Li       9.59531003       6.87717808      12.03250184       0.32348547      -0.14758701      -0.25497942
Li       2.75460162       9.83435804      22.91386748       0.29189223       0.32309541      -0.25768799
Li      10.23775931       5.62467511      17.99640135       1.02634527      -0.84454565       0.41040492
Li      10.78783975       9.04798038      13.25347179      -0.54885270       0.19614978      -0.01903113
Li       6.09967628       7.98339416      23.76749556       0.16529184       0.48085258       0.34996675
Li       2.34948868      11.28705867      18.49121735      -0.46070123      -0.21473598      -0.15431932
Li       9.24494737       9.99626918      14.72888145      -0.36411770      -0.13078057      -0.42847154
Li       8.49807588       5.46628311      15.47548224       0.62475400       0.81038119       0.01494942
Li       7.77309409      11.08914633      20.73870102       0.15539986       0.67189107      -0.03818682
Li       2.72238959      10.73045707      15.22410871      -0.97943887       0.50993455       0.00592871
Li       9.03070510       9.14646310      21.55384706       0.59710055       0.00900687       0.56068690
Li       4.14733700       5.26996646      12.92159738      -0.97580750      -0.08827608      -0.42261140
Li       6.02405991       9.68933655      17.22197735      -0.20450479       0.73390451      -0.13230045
Li       7.65549380       7.39898147      18.48240580       0.11221510      -0.43015444       0.66147177
Li       6.09684244      11.84062134      22.70513804       0.01092995       0.15001874       0.17472049
Li      -5.05839652       7.11894494      12.79037523      -0.18731603       0.09343947       0.86064504
P        4.37570532       7.49365076      15.52136006      -0.98561517       2.14988761      -0.19547217
P        4.02144228      11.91384622      20.96569565       0.31008961      -1.41332817      -1.68513569
P        7.55302146       9.60475104       9.34055464       0.03380775       0.51871633      -0.73510101
S        2.67210343       8.31560243      14.76675682      -1.30483202      -0.99593474       0.15572254
S        9.86747758       0.37788434      20.64505124      -0.45525260       0.08944716      -0.46071122
S        5.51184981      10.19722527       6.14301854      -3.10470006       1.73560883       1.43651188
S        6.05619937       8.35229546      14.75592497      -1.14754570      -1.50697869      -0.75510134
S       11.53248554      -0.07610452      21.87013953       1.32713171       1.55453960       0.13332281
S       -4.20421576       9.99758025       7.13468360       0.36196676      -1.06054728       1.11305880
S        4.31130870       5.47350704      15.25261221      -1.26872254      -0.40119178      -0.86160470
S        3.52076007       9.97469209      20.57587685      -0.74391662       0.66584972       1.67336643
S        9.07938612       6.63488536       6.61217155       0.60542501      -0.28019132       0.64739799
S        4.59288350       7.80299246      17.45928467      -0.74290753      -0.47975747       0.66247903
S        3.83818742      12.32215251      23.12179020      -0.35471081       1.51180352      -0.95653175
S        8.13378948       8.14560140      10.60902013       0.61785271      -0.45673848       0.00482638
S        7.11357544       9.82263922      22.63384843       0.54041985       0.14957821       1.29080626
S        4.17672646       7.23437824      11.55965420       0.13824625      -0.74141303       1.72713837
S        4.01333633      11.70419219      16.95135192      -0.73744218       0.00809443      -1.42551541
Cl       3.70487137       7.90004082      24.10360850      -0.61566585       0.39209895      -0.07443358
Cl       7.16300294       9.49314853      19.19149536      -0.49671474       2.76431282      -0.28218475
Cl       4.38408292      11.72117603      13.14286165       0.92844315      -0.24665871      -0.36926320
S        9.38735951      10.44038097       8.60020282       1.03685214       0.33103220      -2.89230596
S        1.40852053       0.60267049      11.13517693       0.82838846       0.41608005      -0.97279898
S        0.99532430      13.15527883      10.70437472      -1.33463088      -0.58709742       0.09466298
S       -0.90184813       0.64956819       8.22756288       0.63745910       1.05436448       0.46230145
S       -9.17985473      11.09390566       9.82719567       0.70899134       0.53987264       0.76509084
S       -6.47110943      12.99672286       8.08808386      -0.09047172      -1.22748582      -0.50091607
S       12.72518965       5.49174336       8.44120247      -2.55747761       0.81762151      -1.55879937
S       -2.03278182      13.18894340       7.72388563       0.37014150      -0.49962151      -0.16242945
S        4.11509449      12.76522053       8.88283729       1.58015867       1.43770445       1.62784929
S       -4.56581013       3.12820819       9.46493356       0.19049628      -0.54219926      -1.52449067
S       -3.34705333       5.94888536       7.19058061      -1.05241975       1.67119450      -0.99911309
Cl      -3.04896991       3.25197244      18.60895865       1.89584725       1.83757369      -1.20855012
S       -2.47426288      14.51122630      11.81863720      -0.18858296      -0.54846001      -0.47713393
S       -2.20102319       4.56592377      23.62883605      -1.88923172       0.67745566       1.99127849
S        4.10262907      -1.40606344      17.14688915       0.75055916       0.33040359      -1.56846629
S        3.89731079      -0.55335606      23.38811746      -0.89112623       0.91217818      -0.97294840
S       -2.10818157       2.86685051      11.87164291       0.02356201       0.01156868       1.71795839
S       -0.35693028      -0.76831647      15.10262337       0.50724576       0.24266227       1.18883904
S        5.86550049      13.00273059      20.60505236       0.78101287      -0.79971030       0.07866028
S        7.73880357      13.18889385      16.78111058      -0.24405478      -0.17808705      -0.99345324
S       10.77223336      -0.36002858      23.87425523      -1.39145094      -0.14372144       0.20967384
S       11.64706686       7.59663259      11.37430696      -0.74534554       0.79851125      -0.28169920
S       11.67365177       5.03049883      14.59258279       1.21379001      -0.27588206       0.50116755
S       12.00300242      -0.01762226      17.11673834       1.24153146       0.74719199      -0.04195206
S       12.79053360       1.07584038      15.53985985       0.99365822       2.06402826      -1.57806555
S       12.11192711       5.81468471      19.75890520       1.17074991      -1.23521774      -0.22252791
S       13.35824756       4.07425538      19.74555846       0.28034113      -1.54514876      -0.38814550
S        8.62834061      -0.86119749      14.17782866       0.29044770      -0.02945167      -0.60652258
Cl      -6.69914159       9.79803787      18.46977090       0.48702735       0.79507360       1.14832598
S       -6.07818249      13.86791063      14.81905563      -0.30755700      -0.44293168      -0.75416041
S       -4.38108209      13.25485507      20.97075915       0.51571596       0.49586979       0.25925206
S       -6.78477245      10.67592144      22.49256180      -0.98113358      -0.98736164       0.40153158
S       -1.15036972      12.71866015      21.03009775      -0.57077499      -0.49327733       1.56899619
S        2.45911978      13.10253067      20.18147574      -1.01057500       0.21747854      -1.03407105
S       -7.08541681       7.81213105      11.17139814      -1.26972095      -0.41079594       0.10535613
S       11.10182952       6.92437492      15.46148484      -0.19408998      -1.79011322       1.19235699
S        9.29038021       7.66487423      14.56242089       0.92650349      -0.41235820      -0.39702251
S        9.93560178      11.04637434      12.78308309       1.66239504      -1.10175192      -0.62718484
S        7.76414921      11.25759859      15.94163633      -0.01392354       1.88575806       0.88406190
S       10.29989548      11.13975864      21.64220257       0.27559439      -2.96945503      -0.00292579
S       11.06322557       9.46753340      22.61687381       1.05152545      -1.83826716       0.10849318
Li      -5.58006826      10.96441135       9.25671170       0.21836842      -0.59534915      -0.58447623
Li      -1.56265446      14.49839945       5.94144055       0.32871085       0.41037917       0.10070299
Li      -7.07960738      12.77675132      10.33098759      -0.21625155      -0.19240868      -0.81215910
Li      12.11282155       0.37449528      10.60211307       0.60563358      -0.37230317      -0.07035448
Li       2.60667697      14.43128189       9.26523526      -0.37561516      -0.14294279      -0.70414011
Li       8.66980060      11.32310540      10.90688698      -0.59300119      -0.10325237       0.54776095
Li      -3.41863018       1.04901035       8.71116186       0.43065738      -0.36144591      -0.13740668
Li      -4.74817550       4.13353861       7.14890236      -0.78299674       0.01463078       0.07037685
Li       0.34979628      -0.88677974       9.56972857       0.12876593      -0.19084744      -0.17398859
Li      -8.47233835      12.37340944       8.01687156      -0.83780068      -0.14600701       0.94885342
Li       9.23041669      -1.44639427      10.45117531       0.43342790       0.15155624      -0.26553337
Li     -10.49073317      11.71188951      11.63274362      -0.60979717       0.01385380      -0.05036099
Li      -8.54413833       8.83474356       9.25841246       0.16302576       0.02253465       0.36623460
Li      11.88550316       5.44995908      10.70712460      -1.02349867      -0.09427542       0.45646895
Li      -3.67365021       4.49746613      12.88053766      -0.54518042      -0.37704011      -0.09083159
P       -2.59346059       3.71892229       9.86506657      -1.96654113       0.63927894       0.21755152
Li      -4.72341127       5.71315549       9.93878805       0.28077099       0.45414123      -0.46308006
P       -5.81195736       8.47806636       9.74293464       0.19412038       0.11706901       0.25336666
