279
Properties=species:S:1:pos:R:3:momenta:R:3 LayerForceGeomOptConstraint=T E_ref=-953.6955331636455 step=100 pbc="F F F"
Li       2.98568964      13.82004703      25.35982579      -0.97787697       0.70614823      -1.58306920
Li       9.16555486      11.31246059       6.21552899       0.72545627      -0.19363958       0.61221311
Li       2.74071243      -0.82313625       9.62046760       0.34909081       1.11300732      -0.23028353
Li       4.47911058       5.87372714      23.73087791       0.09771573       0.75171820      -1.64567098
Li       1.78212395       4.90932163       7.05811015       0.10987488       0.66392870      -1.13512113
Li       5.82375271       2.66147901       7.08136862      -0.69190476       0.44341483       0.08056032
Li       8.42746468       0.61385638       5.56863479       0.08413398      -0.44716106       0.64862457
Li       1.26117900       1.83257009       8.68285964       0.02697279      -0.94581559       1.38608385
Li      -0.39351037       1.75969146       5.33609603       0.99531068      -0.62544900       0.80866524
Li       5.20233625      -0.76313315       6.26948688       0.51565385      -1.04993204       1.13665978
Li       3.60482704      13.84099515      10.60075315       0.01965878      -0.52428161       1.01017424
Li       0.00046998       5.40455131       3.57454073      -0.49609469       0.25591087      -0.09139359
Li       3.63544949       1.41509341       5.37819412       0.65542499       0.85229755       0.98101483
Li       1.39225446      -0.76524312       6.04473493      -0.22611465       0.19089869       0.06800661
Li      -4.69849961       9.64850855       2.32781068       0.99109042      -0.84639299      -0.75803749
Li       1.93385703       3.41924752       4.09276025      -0.01469157       0.42058146       0.67334249
Li      -4.30546396      14.00321624      25.01492621      -1.11285525       0.03327226      -2.20370957
Li       0.22344527      13.04453169       8.66299023      -1.30386715       1.00567704      -0.66919817
Li       6.86750417      -0.25527881       9.33047118       0.86422639      -0.11376748       1.96690314
Li      12.68389098       3.78770171      24.73494181       0.06691175      -0.22067917      -1.48492123
Li       8.36957566       2.93960027       7.53161377       0.33352005      -0.58769118       0.51356021
Li      -1.36433640       1.66945017       8.24883727      -0.68115930       1.51161845       0.04721439
Li      -8.21436525      13.08681313       5.15703459      -1.27437522       0.53828343       2.74106196
Li       9.94516731       2.98042702       3.58135204       0.60306389       0.15324686      -0.12413496
Li       7.10385125       3.40360504       4.17523830       0.11380902      -0.25088610       0.21834256
Li      11.67809235       0.31916520       5.90373339       0.24184965      -0.61339051       1.25393350
Li      -8.28888926      11.70046464      10.72593958       0.55665827       0.20463012       1.67323912
Li       5.16746382       5.74913692       5.70460602      -0.91115789      -0.73520159       1.58212120
Li      11.10694166       3.15970796       6.46247857       0.18000898      -0.95839151       0.33129221
Li      10.54914687       1.00360787       9.53386580       1.60396661      -0.06601313      -0.10924590
Li       1.18694021      13.35136293       5.26614512      -0.43574009       0.39485004      -0.43036070
Li       8.38647315       5.93604334       3.30906733      -0.74790067       0.03232015       0.21031244
Li       7.62003095       6.20329517      26.26169512      -0.12655465      -0.59565740      -0.21679560
Li      10.97574314       5.90608878       7.31556663       1.03768139       0.47705319      -0.02518119
Li      -3.01114702       8.78625084       9.11970551      -0.96307450       0.30578813       0.18406766
Li      -0.15705284      10.33089298      25.28287431      -1.36710226       0.14043594      -0.00307405
Li      -2.43602229      11.87245165      10.16608237       0.38888067       0.24206054       1.77895525
Li       3.03707588       8.37255875       7.83509749       0.25315177       0.06572279       0.72016057
Li       3.01971406       6.05166708       3.53202046      -0.17847764       0.40288070      -0.50286754
Li      -0.06559583       8.61053683       7.05201498       0.74963507      -0.95786034       0.07496232
Li      -2.81885651       9.82219302       5.38512341      -0.19145009       0.90244686       0.87796487
Li       0.09064285       8.33557308       4.68642649      -1.50603057       0.48119343      -0.44981857
Li       3.52273190       5.59386676       9.21604711       0.53658992      -0.04478168      -0.86159025
Li      -4.31082198      12.79324786       6.89651278      -1.77353893      -0.58010076      -0.00125685
Li       1.14756196      11.08933369       8.04206152      -0.43093258      -0.35147492      -0.20520480
Li      -0.99306712       6.60668170       8.45396204       0.99893033       0.64593719       1.15010201
Li      -2.18200450       4.15678811       5.84335858      -1.49538862      -0.70993481      -0.82180212
Li      -0.28176460      10.81955512       3.50473753       0.56007176      -0.25754265      -1.09066431
Li       1.53887137       7.55542188      23.84611423      -0.30141445      -0.26924175      -2.42992083
Li       3.54334299       2.76264757       7.40860421      -0.80599416      -0.82908134      -0.09933502
Li       4.72917913       9.43924027      10.08270716      -0.22488462       1.17239112      -1.25559261
Li       9.68965676       9.79775078      24.17126980       1.17309834      -0.27999783      -1.72244975
Li       5.99862984      11.64579167       6.71012661      -0.46581816      -0.25323619      -0.49286900
Li      -5.05768450       8.90553115       6.76553663      -0.10212131      -1.16289298      -0.32401981
Li      -3.33228265       6.76850380       6.00451352       0.88377686      -0.08041574      -0.32720251
Li       4.98464250       8.77174601       6.01691081      -0.23207588       0.58903483       0.20969508
Li       2.76674399       9.06494711       3.96763762      -0.31536743      -1.05442187       0.26757667
Li       7.94349720       5.27541958       6.12032270       1.50729685       0.05497954      -0.75734208
Li      -2.77976166       5.26582710       9.13629043       0.37980158       0.40911950      -0.74976470
Li       3.48671445      12.36206255       7.44279443       0.59646711      -0.17899512       0.89713986
Li       8.23530431       8.18105027       5.84245299      -0.27873636       0.31303065       0.45192277
Li       6.69440430       7.09066742       9.51183063       0.96895507       0.78740913      -0.58492041
Li       4.38514787       3.05838430       2.76518335       0.72468085      -0.00926026      -0.74142981
Li       6.30007505      11.14578382       3.87032257       0.76201786       0.25797080       0.23513643
Li       2.43262445       2.26561550      21.64665589       0.40109004       0.44770791      -1.23273780
Li      -3.14519196       6.01392132      18.06864584      -0.19457899      -0.46748890      -0.56226308
Li      -1.38473615      14.91246608       9.89619707      -1.48950985       0.69404235       0.77967032
Li      -1.80528182       3.15341194      23.89529581      -0.08009340      -1.29397026      -0.29968453
Li       6.48669479      -0.43924484      18.30626841      -0.29857970       1.40065520      -0.09723465
Li       2.42407023       0.22798643      12.77206584      -1.26429139      -0.05370492       0.02314401
Li       2.63675941       1.53985233      24.54105638       0.31973784       0.06485083      -0.30940633
Li      -1.09465050       3.64527911      18.18609710      -0.00625999       1.26984976       0.00909034
Li       2.95488266       4.59027244      13.24314402       1.47063049       0.57422432      -0.18605011
Li       4.76037537       0.31552918      15.31236687       0.82131991      -0.62141100      -0.07934090
Li       4.00375301       4.68574878      21.36918363       0.80891631      -0.14234401       1.07431366
Li      -1.58404230       0.32922059      11.09370609      -0.52953099      -1.18936529       0.89124167
Li       4.98075845       1.54382303      22.15534135      -0.45636793      -0.42280137       0.87664645
Li      -4.38157975      13.94414944      11.00642246      -2.43354447      -0.78780067      -0.38300476
Li       0.79967841       3.73776821      15.84958591       0.01019700       0.29022367       0.51271901
Li       3.19544017       0.37766454      18.77501484      -0.76328291       0.52630785       0.08381372
Li       0.52487776       3.52622497      23.42580745       1.18438792      -0.44492753       1.46265195
Li       7.51930929       1.48111760      13.14650499      -0.42215318      -0.55424459       0.35175330
P        0.54413095       1.26067085      15.66913074       2.27725686       0.15843037       2.29645091
P        0.11783734       5.66422058      21.78367210       1.69788993       0.55514407       0.02061989
P        4.45804729       3.15524838       9.82198230      -1.42761712       2.16828356       1.71433937
S       -1.13269737       2.39328759      15.41813155       0.68635981       1.13382110       0.40880227
S       -1.54077564       6.40694693      21.20182397      -1.82042739       0.93504799       2.22154148
S        2.47838478       3.82748201       9.25192128       0.19768556      -0.75016040      -0.83701917
S        2.14703104       2.13847416      14.31371781      -2.54747292      -0.13791999       1.21832739
S        1.75121810       6.56928382      20.97244064       1.52446359      -1.14829579       1.29667489
S        6.51870672       4.73561597       7.98108824      -0.71571539      -0.54606186      -3.42782377
S       -6.71890011      11.96981421      15.93200312       0.43316577      -1.52999290       0.62666549
S        0.25838899       3.62045974      21.05603838       1.38300101      -0.21862578       0.13990705
S        4.47509346       0.71115743       7.69632451      -1.92452002      -2.73545419      -5.12279723
S        1.36300583       1.93003458      17.41374595       0.90986153      -1.97290034      -0.82050150
S        0.02634705       5.58843950      23.93801212       0.70990407      -1.22297823       1.95329263
S        4.60616319       2.52246171      11.74450621      -2.57750333      -1.24948921       2.81882085
S        3.63013088       3.52814806      23.45699979      -2.43753004      -1.58543974      -1.96308863
S       -6.31083351      12.32270838      11.49811628      -2.58001882       4.25051489      -1.93579350
S        0.28540359       5.41217075      17.61286789      -1.74117370      -1.06416877      -0.47576722
Cl       0.48419090       1.62074730      24.50125654      -0.23754166       0.24928899      -0.23314551
Cl       3.72726745       3.80761899      19.24480081      -0.72963188       0.11815087       1.15045588
Cl       0.90589567       5.17609060      12.15338666       0.57296949      -0.92855966      -2.48171356
Li       9.85822204       2.56952411      20.72137432       0.08952678      -0.44874506       0.21514283
Li       6.49481612       5.48088839      15.97208331      -1.00765354      -0.26338118      -0.22614974
Li       6.56826519      13.22225792      12.37407007       0.58374544      -0.33617464       1.29138818
Li       5.91252554       3.76209366      23.53567493       0.51024061      -0.09189980       0.55523930
Li       7.10908034      11.92304194      18.43979599       0.01090032      -0.99885083       0.17323559
Li      10.80016897       0.59521835      12.42620806      -0.09388300       0.43825159       0.57869236
Li       9.52508927       1.40836471      24.03289500      -0.64486139      -0.61278308      -0.19647322
Li       8.95459507       3.20157370      18.35323965       0.46780182       0.01148257      -0.76672012
Li      12.16365695       7.34215994      13.21208606      -0.24920700       1.08229443       1.16719805
Li      11.22567799       0.16033999      15.20495667      -0.02644060       1.45023405       0.73223062
Li      11.04484661       5.44966472      21.80881448      -1.01988842       0.64148565       0.61505892
Li       7.19213114       3.97484679      10.84045855      -0.31730638       0.38661286       1.08034220
Li      12.38799326       3.02729360      21.51000107      -1.03642904      -0.40314191       0.11133586
Li       1.87418307      12.84311947      13.55291273      -1.09377820      -0.37355545      -0.40194959
Li       9.71611918       3.85794841      16.09320952       0.22986516      -0.04418143       0.48616103
Li      11.86136512       0.61300079      18.40619980      -0.79377856       1.27244543      -0.23287074
Li       8.38047422       3.61878907      23.18270816      -0.92377613       1.04508989       0.15160612
Li       0.58775607       2.06141663      12.60575087      -0.46137030       1.31889605       0.57769653
P        8.11979680       0.96431058      15.46351141      -0.15502624       0.12336615       1.25403103
P        7.31751581       5.79161891      21.56804995       1.48987501      -0.61814062       1.01931658
P       12.28659735       2.91476582       9.36610001       2.35374665       1.59711031      -1.31005947
S        6.41608307       1.96255290      14.97641289       0.98466478       1.08792648      -0.16225524
S        5.40656606       6.69464376      21.06723091      -0.05524237      -0.39717287       2.39361611
S       10.25165696       3.64370585       8.42868591       3.61108054      -0.30827346      -0.24034933
S        9.80468781       1.96838034      14.57549991       0.15560594      -1.83673950       0.48145089
S        9.11226902       6.87698450      20.92964065      -0.34381251       0.68740081       0.37128090
S       -0.75597079       4.04379588       7.39038079       2.64004918      -1.42521519      -2.39903632
S        1.31061694      11.36839401      14.83124988       0.80799703      -0.05493238       2.25139275
S        7.23555310       3.67743412      21.07658892       1.00579438       0.50977920       0.29302810
S       12.03888291       0.52519538       7.97831476      -1.50950891      -1.00474320      -3.40525905
S        8.39483939       0.85712346      17.55595402      -1.56894759      -0.51728811       0.37510062
S        7.28019018       5.51390175      23.80528868      -2.16642584       0.94397431      -1.24382136
S       12.37396694       2.89402576      11.42624592       0.19580864      -0.88268182      -1.24087534
S       10.54118349       3.42748617      23.08097658       1.09696113      -2.57273615      -2.38694589
S        8.33150536       1.54475745      10.82087927      -1.53464013       0.40116106      -2.20684192
S        8.48524788       5.30189943      17.19011750       4.82630888       2.49812905       0.51024490
Cl       7.07831314       1.95259485      24.64277779       0.86058386       2.17227193      -0.30373590
Cl      11.06432268       3.07009750      19.09131193      -0.31909019       0.57854775      -1.04235880
Cl       8.07928233       5.00968988      12.49797250       0.88560235      -2.65054831      -1.28207424
Li      -1.32569141       8.77468266      21.00648215      -0.80542680      -0.03517957      -1.36060467
Li      -5.79155134      11.49089517      19.14594668       0.41535729      -0.27476647       0.75620091
Li       2.45129202       6.82379274      11.00397376       0.02777008       2.04506274      -0.78098899
Li      -5.50595380       9.22062757      23.37724851       0.39532462      -1.21391984      -0.48969171
Li       1.48988629       4.18842342      19.21096016      -0.43528578      -1.08318031       0.61850858
Li      -0.72896415       7.89968146      12.21654110      -0.18574676       0.31951746       0.52937118
Li      -1.38490586       7.22920313      23.55122917      -0.64180936       0.57323912      -1.44498307
Li      -5.21610848       9.93474975      17.66104381       0.31599391       0.52779865      -0.34537525
Li      -1.25707488      13.58060548      12.42240085      -0.07685845      -0.68552322      -0.92571062
Li       0.11362180       6.47655806      15.56753014       0.40753682      -0.04957157       0.82807187
Li      -0.16816246      11.41297604      20.81990349       0.35241039       1.62690143      -0.70695985
Li      -5.26976614      10.79483224      11.79828720      -0.32701029      -1.80593194       1.54831812
Li       1.27219260       8.85874543      20.88870400       2.13383603      -0.29698181       0.01677656
Li      -0.89891963       5.17270501      10.86935134      -0.26813617      -0.66311429      -1.80419814
Li      -0.94775888      10.66878364      15.08787367      -0.61916619       0.18045050      -0.61209447
Li      -0.02430422       7.52529230      18.44163174      -0.69227240      -0.74257449      -1.36459558
Li      -2.41432849       9.58095971      23.19422987       1.74667625      -0.42568119       1.51778994
Li       4.45045043      10.81003885      14.65997136       1.24411236       1.46413787       0.16327640
P       -3.26009418       7.69891620      15.83314602       1.03025257       1.15251952       1.81527059
P       -3.53276850      11.99597945      21.78996244       0.16053380       0.81853320       0.20677634
P        1.19774295       9.07086506       9.94663564      -0.87210153       1.55461327      -0.01813934
S       -4.98582836       8.59962305      15.37112725      -2.25289834      -0.10559158       0.33824459
S        2.49546000      -0.08137814      21.03698624       1.50990778       0.02470171      -2.53431930
S       -0.82547845      10.23748742       8.59929706      -0.15263045      -0.19658981      -3.44172902
S       -1.53623372       8.49058895      14.68045459      -1.17451147      -1.07623411      -0.98520563
S        4.88776938       0.03277603      20.40513480      -3.35639202      -0.96426245      -0.20848646
S        3.04949466      10.34229455       8.34370766       1.59613354      -0.15336705      -2.61875999
S       -3.00857209       5.65075128      15.49583826       0.20642841      -0.60224830       0.63066256
S       -3.57670791       9.86995583      21.09237658       2.35642533       0.47311948       0.32524061
S        1.12658977       6.98226457       8.09577219      -1.72128515       0.99175308      -2.99883529
S       -2.74411939       8.15409604      17.78979342      -0.71903087       0.54350111       2.00112457
S       -3.62861339      11.63538780      23.79479670      -1.96907823       0.17898649       0.94745590
S        1.39807856       8.99953805      11.99474454      -0.30716294       1.25916114      -0.30658611
S        0.09746049       9.58284278      23.40068550       1.22963969      -3.78043060      -2.30664958
S       -2.60705281       7.19722064      10.79440517       0.86586760      -1.38235765       1.21966739
S       -3.70696884      11.47257666      17.09438989      -2.68830474      -0.96970527       0.95598656
Cl      -3.35005978       8.30505773      24.86446504       0.67856362       3.32316613       0.44309069
Cl       0.42055403       9.50877231      19.12740814       1.23720490      -0.98135627       1.31011740
Cl      -2.26824474      10.94087725      12.27409446       2.52178306      -2.29099276      -2.82738035
Li       5.88500162       8.97901362      20.70688190      -1.00261256      -0.15156653       0.44124225
Li       2.50617430      12.47537979      16.76780638       0.25239247      -0.41248803      -0.00984557
Li      10.19895725       6.16418244      10.04463914       1.27136406      -0.47359441       0.92541116
Li       2.62599363       9.73854623      23.58989873      -0.25254377       0.59109772      -0.37517357
Li      10.71730729       5.38937998      18.29833994      -0.28174513      -0.90354458       0.55442446
Li       6.59680925       9.59278589      11.78129953       0.95630388       0.45886320       1.21740695
Li       6.13831223       7.65578925      23.43555474       0.28954078      -0.22083994      -0.48919923
Li       3.37769634       9.62276145      18.41365830      -1.05228963      -0.21278698      -0.53986125
Li       9.38370507      11.57148204      14.36805486      -1.00539194       0.65214820      -0.17101707
Li       9.14469215       5.97249295      14.93671569      -0.09843061       1.31834388      -0.65051723
Li       7.18309003      11.65398728      21.74418256      -0.16958602       0.97735250       0.93861992
Li       3.20778199       9.21711315      13.19498300      -0.47809733       1.59285942      -1.80669331
Li       8.59968846       8.94948724      21.88406816       0.19998675      -0.46640301       0.16196308
Li       6.44881742       7.17118464      12.49078161      -1.67628591       0.46087209       1.68242627
Li       5.86457950       9.25324093      17.17945741      -0.27190461      -1.05605515       0.68831876
Li       8.28281592       7.44178614      18.07754918      -0.78683380      -0.83115768       0.00372808
Li       5.01666686       9.98834467      23.16497105      -0.02249211       1.05254566       0.59271196
Li      -3.60909539       8.65842971      12.88138894       0.32040457       0.06515080       0.23647279
P        4.26380388       7.24030779      15.34252747       0.51055224      -0.67642568       0.12197894
P        3.65788247      12.19972409      21.56631444       0.12078406       0.28186822       0.63895115
P        8.80069511       9.35162053       9.20405360      -0.87976720       0.89580642       0.82643225
S        2.34200839       8.24479923      15.16605897       0.22296673      -0.21492181       0.42142999
S        9.86944199      -0.00113044      20.59815333       0.59929813       0.98950937      -4.42342641
S        6.51970332       9.37815409       8.03032025      -0.33010852       0.00693528      -0.77855213
S        5.70132215       8.53043687      14.13447029       0.00449110      -0.32763137       0.73783738
S       11.95544794       0.34583290      21.23988629      -2.32830731      -0.55374322       3.63321492
S       -4.49106516      10.58161787       7.91044627       1.13228061       0.66591853      -1.02222948
S        4.48682693       5.36036058      14.64899137       0.45422570       1.96897663      -0.92241410
S        3.66269086       9.83574363      21.33657992      -0.83267803      -0.45677336       0.67013538
S        8.65846288       7.04651141       7.58100119       0.18732158       1.37012955      -2.75973992
S        5.02350498       7.28454978      17.27180003      -0.16635871       1.72824421       2.70188251
S        3.56286631      11.88065880      23.50066074      -0.15544765      -1.71660915       0.78749664
S        8.98119260       8.39205976      11.20303642       0.83496022       0.62147472      -2.52053849
S        7.11238931       9.91198577      23.24029584       0.90102569      -2.57878416      -1.44307601
S        4.75837732       6.81038474      10.82294103       0.67075666       1.59939634       1.75239606
S        4.22453660      11.15000077      16.92426597      -0.27759722       3.83511550       0.89621260
Cl       3.67759892       7.86620480      25.18734635       0.88190171       2.22425458       1.49635881
Cl       7.44030333       9.39855828      19.06344029       1.27299160       1.19338833      -2.42721088
Cl       4.38533495      11.47951974      12.55944870      -1.61334191      -1.16822274      -1.97991144
S       10.29556929      10.65092836       8.56702764      -0.02799646       0.70263752      -0.13850324
S        1.47023439       1.08245847      10.58571581       2.66694256      -0.19864548      -3.29553717
S        1.01220875      12.99015474      11.03617354       1.58458421       1.93116097       2.38751958
S       -2.55584816      -0.10280246       8.75612042      -1.94118607      -4.68717208       0.02672923
S       -8.38721904      10.01976376       8.60030060      -2.44760865       0.76491680      -0.11443755
S       -8.82628562      13.51738263       7.91381230       1.60437848       0.24391423      -4.98144135
S       13.59467828       3.85791604       7.97385568      -0.41995865      -1.84025096       0.86781027
S       -2.46108833      13.41779749       8.05900870       3.58365479       1.44981216       0.82382238
S        5.17336688      13.15971349       8.31670302       0.60196266       2.81269116       0.79845801
S       -4.86368953       3.59515516       8.87906880      -2.92470181      -2.01589143       1.39208364
S       -5.04270293       6.30514124       7.14265094       2.50779523      -1.47556180      -2.84905852
Cl      -2.94638524       3.90675651      18.88727115       2.20167213       1.53666395      -1.40187204
S       -2.48169159      15.00841651      11.79818510      -0.32543307       0.62599804       1.48135496
S       -3.60234437       3.73611635      23.12679579       0.83285644       0.17090520       0.21767364
S        4.55464955      -0.99137069      16.86476589       2.20871866      -2.92797766      -0.90785224
S        3.69413258      -0.67496241      23.13982962       2.00871252      -0.75510788       3.19460222
S       -2.10135921       3.30764891      11.82971292      -0.95336286       1.82572192       1.75719783
S        0.69656616      -0.66019557      15.15649922       0.55542826      -0.68335978      -1.92496042
S        5.41368217      12.88725852      20.73807288       0.25785372      -2.20969650      -1.12295502
S        8.36973358      13.50380907      17.29938256       2.35080768       0.35286282       3.06117989
S       10.87303473      -0.65194185      23.33646923       1.35434173      -0.94660654       3.12617529
S       12.21960157       6.71413352      10.98423445      -1.43281312       0.16203604       0.65099167
S       11.62020069       5.79649383      15.72567424       3.77122369      -3.52802306      -1.57071748
S       11.85084972      -1.20796752      16.80885797       0.74113506       0.01591960      -1.74040418
S       12.91534084       1.70144597      15.43507384      -3.56403301      -3.32243500       0.66177590
S       13.00734766       6.22512156      20.53591851      -5.30308960       6.15198352      -3.50957665
S       13.98779763       4.52352998      20.80346555       3.60054578      -6.00278161       0.84927709
S        8.41421320      -0.68019383      14.44054367      -0.10870908      -1.00723298      -0.11857433
Cl      -6.96063948       9.78423916      18.76623737       0.85563901      -0.31301003      -1.97109631
S       -6.31817648      14.13463094      17.27004953      -0.02438760       0.08697776      -0.03339341
S       -5.20962339      12.93218604      21.20977300       0.54104626       2.46384288       1.28437391
S       -7.32159211      10.28385351      23.01809240      -0.55259976       1.95015224      -0.05186211
S       -1.78578196      12.85276170      21.19462166      -0.49896917      -0.30196897       1.51112907
S        1.96581594      12.87010026      20.68305626       0.88765299      -0.77553878      -0.69786818
S       -5.92703282       8.76191291      11.21577460      -1.97761044       1.92928112      -1.87405956
S       10.79759457       7.38837531      17.05764742      -0.44088516       0.71411191       3.02236357
S        9.25903358       8.56393247      15.58162242      -5.80319359       4.13129477      -1.95892928
S        7.90333650      11.69412620      11.71142444       3.17765133      -0.54013599       1.05779824
S        7.75347082      12.53988900      16.08174576      -2.21450918      -1.87607146      -3.15446715
S        9.52971928      12.46180740      21.05264221      -2.52383166       5.53410237       1.30097212
S       10.51366931      10.29016632      20.90755995       2.16118306      -6.64414882       0.35648026
Li      -6.86682369      12.35446290       8.37996743      -1.06870453       1.10530212       2.06241012
Li      -1.70389452      14.85356031       6.75617225      -0.50903671      -0.27168149      -0.01105078
Li      -8.73478621      15.67073723       8.40974374      -0.64934988      -0.71200724       0.43412823
Li      14.33126741       1.57788289       9.00097903      -0.57816918      -0.58350675       0.54567416
Li       5.83263516      15.34086809       7.37387088      -0.44255710       0.07880220       0.87745693
Li       8.32116702      12.11198770       9.66891937       0.60915018      -0.52504860       1.51981524
Li      -4.61237333       1.10592998       7.75728053      -1.00671695       0.15923983       1.74055124
Li      -5.70363351       3.91183946       6.29824242      -0.18711306      -1.40719719      -0.70134127
Li      -1.54795500      -1.42657337       6.98629218       0.35148107      -0.83049978       0.00522415
Li     -10.10413936      11.44998394       7.66302152       0.67519224       1.92857379       0.92572993
Li      12.63144477      -1.89920602       8.61317021      -0.72085098      -0.12070553       0.74979311
Li      -9.71134354       8.21242064       7.57889253      -0.90318374       0.20339127       1.67360265
Li      -6.87554579       6.92640481       7.11349743       1.14544638       0.12833309       0.94179845
Li      13.25106954       6.29507374       9.30403521       2.18324108      -0.15321440       0.20622662
Li      -2.19650293       5.14834577      13.48311819       0.21719303       0.07430716       0.28971114
P       -3.05327862       3.02458419       9.87087129      -0.33807245       0.28955658       1.40062608
Li      -4.80213714       6.60408235       9.92063402       0.26760305      -0.19256108      -0.35221426
P       -6.18551326       9.04117572       9.18804749      -1.42415539       1.01785700       3.59800758
