279
Properties=species:S:1:pos:R:3:momenta:R:3 LayerForceGeomOptConstraint=T E_ref=-1069.1115733071904 step=2700 pbc="F F F"
Li       4.11289587      12.81351892      18.73201692       0.00223248      -0.39083347      -0.19470068
Li       6.81167350      11.46427051       8.32696184       0.08389314      -0.55249814      -0.53583428
Li       2.50834664       1.07457667      12.29387266      -0.11447539      -0.26456457      -0.81069486
Li       3.49094299       6.04062939      22.83828384       0.13483221       0.07165890       0.71361405
Li       1.86738481       7.63907325       8.67906202      -0.09186708       0.99335658      -0.28791942
Li       7.05714338       1.66433840       9.85034619      -0.00837420      -0.00792699      -0.39922226
Li      11.96055750       0.57213418       8.01745706      -0.53487866       0.16127271      -0.48766271
Li       2.26899954       5.25997963      10.43013617      -0.01409273       0.15877682      -0.10491743
Li      -2.63759526       1.97825226       5.59165321      -0.24882166      -0.60396881       0.24520380
Li       6.51003949       0.05586567      11.82544851       0.44444137       0.54340010      -0.09705554
Li       5.93386440      11.54585123      11.22545208      -0.35068415       0.73887980       0.04695196
Li      -0.10360815       5.53547287       3.67057614      -0.39284607       0.01089485       0.51876580
Li       4.60283469       2.48535026       6.20104251      -0.75570965      -0.40214691       0.31159146
Li       2.62688353       0.41867009       9.41196450       0.13684558       0.67275743       0.27258168
Li      -1.79391273      10.94747719       8.01134174       0.25600788       0.11856244      -0.55501753
Li       0.01826683       1.59123074       6.05083510      -0.44771906      -0.05616328       0.25100436
Li      -5.48346679      13.05054313      21.66979492       0.07747391      -0.12809918      -0.33018190
Li      -0.75271926      13.67328480      10.24884491       0.36200624       0.99776577      -0.34406385
Li       8.75992128      -0.70567186      13.48305843       0.16381002      -0.21017378      -0.49026905
Li      11.91196914       6.48589934      21.77372810      -0.13090723       0.56812864       0.40223537
Li      10.42854119       4.82545229       9.30501884      -0.80492964       0.43936343      -0.45389960
Li      -1.57985567       3.25249381       7.87023941       0.13205032      -0.26192030      -0.06394469
Li      -5.42918001      10.73724439       7.99335152      -0.11850674      -0.26671288      -0.55255619
Li      11.18355092       5.53360536       6.68002144      -0.36311909      -0.29855384      -0.77246357
Li       4.21530215       2.39445111       8.95830341      -0.05094518      -0.35361696       0.13473764
Li      12.43990820      -0.55238954      12.56360404      -0.28514882       0.30830765      -0.35824768
Li      -7.23317513      11.07235323      12.87199381      -0.61136403      -0.42958704      -0.44746789
Li       4.37203781       5.29904200       8.12730381       0.15172787       0.15559489      -0.50251956
Li      12.50920401       2.68064384       9.80099423       0.57752578      -0.48523841      -0.95772157
Li      10.57546209       1.79859346      10.54894686       0.11141183       0.09498779       1.25785999
Li      -2.98470000       8.32842792       8.93979015      -0.08788126      -0.03738520       0.37511840
Li       8.41605808       3.74641308       7.00639247       0.78251704       0.30311390      -0.22283897
Li       9.62087249       6.11351051      23.56579806       0.14464275       0.17685916      -0.19096512
Li      10.51006371       9.15281188      11.14939737       0.05233888       0.30977024      -0.41115974
Li      -3.48598077       9.61261131      11.04535458       0.35571156      -0.49251264      -0.02581527
Li      -2.25106757      10.20334660      22.92569886      -0.23485240       0.39850090       0.07865893
Li       0.29218667      11.44099845      11.98958884      -0.76475938      -0.21062537       0.43757444
Li       4.22816985       7.61364020      10.52390844      -0.06074977       0.56294814      -0.05464330
Li       0.16473955       6.37569890       6.67085644      -0.19166586       0.54469823       0.29052154
Li       0.78327019      10.44615478       8.54625920       0.22318642       0.93292122      -0.66786264
Li      -3.55012338      12.29384767       7.34809736       0.24522768       0.39316700       0.21131755
Li      -2.42443146       9.27256170       4.26460476       0.31465768       0.92681117       0.67795561
Li       5.49600229       4.88348012      10.54157620       0.43855492       0.34639946      -0.34248531
Li      -5.00173223      12.64515827      16.20461292      -0.25158328      -0.65109990       0.53204505
Li       3.20895607      11.95989611      10.61445674      -0.42273446      -0.02993293      -0.33282631
Li      -0.56461328       8.75674107      10.57564064      -0.22786951       0.37257615      -0.03353952
Li      -2.30550815       5.76581061       5.48077566       0.14337456       0.12087016      -0.05740976
Li       0.94698858      13.18574615       7.98810769      -0.12072758      -0.32347064       0.77276953
Li       0.83143204       8.06187401      23.13466630      -0.42429695      -0.12058412      -0.80402992
Li       1.63283765       3.08741284       9.17181365      -0.76701897       0.24108346       0.84752181
Li       4.04912816       9.60111252      12.61846221      -0.38104775       0.02806665       0.43387445
Li       9.67336843      10.27344636      23.83385662      -0.00444677       0.13262235       0.12171957
Li       5.18204311       9.17879050       9.02734272       0.80082661      -0.91243167      -0.63565784
Li      -4.95424466       8.19644228       7.24874460       0.50754997      -0.11938478      -0.56508095
Li      -1.99817555       8.06542413       6.63988388       0.19103459      -0.46894443      -0.06815447
Li       3.29631869       9.81425071       5.92739075       0.20013107      -0.38110727       0.56480594
Li       0.33959027       9.29070650       5.84363163       0.87089925       0.08762086       0.24756521
Li       7.02966076       5.47632672       8.28033169      -0.20508843      -0.02126379       0.12234335
Li      -1.58858766       6.00457990       9.50985579      -0.00798709      -0.10630861       0.56140306
Li       3.53829879      11.48852121       7.82765912       0.01088921      -0.15054533       0.55727814
Li       7.19288129       8.31267324       7.41511551       0.12596895      -0.10014377      -0.02889728
Li       5.38511895       6.42404027      13.59078965       0.00194870       0.30372112      -0.34373487
Li       1.49238561       3.85391029       6.57843109      -0.54142214      -0.36621729       0.39343863
Li       9.75151339       7.65306165       8.65706428      -0.93747398      -0.55654624      -0.24892899
Li       3.11226282       2.41509270      20.58376568      -0.40959563       0.16590351       0.44700536
Li      -1.76616178       5.39225100      18.35247039      -0.50312525      -0.40498072      -0.31600546
Li      -3.14588990      14.27521483       9.41974875       0.23273709       0.22552261       0.00120389
Li      -1.24476681       2.95751029      23.41259352       0.56953422      -0.59234209       0.36348318
Li       5.40212063      -0.39031083      18.09167523       0.34135942       0.16545005      -0.30917419
Li       0.35797393      -0.34687662      12.83698753       0.00182937      -0.25269274       0.06969980
Li       2.76314168       1.63652458      23.85227767      -0.31436198       0.47171970       0.49184454
Li      -1.25801641       1.32745321      16.47800204       0.33879253      -0.00213818      -0.21868863
Li       2.31821343       4.12724622      16.69258977      -0.20156910      -0.19760317      -0.54649340
Li       4.48537999      -1.02214692      15.47664385      -0.02129272      -0.29815734      -0.43665225
Li       4.68554248       4.54774154      20.85142732       0.53109919       0.33111007       0.44051165
Li      -1.65506723       1.05471786      10.12258352      -0.50015118      -0.57186892      -0.16091776
Li       5.35406423       1.17597683      22.37014637       0.18832180      -0.24684422       0.59248496
Li      -3.57253213      15.65772401      13.21451016      -0.08464944       0.39035265       0.02144654
Li       0.21926524       2.84536365      18.65703497       0.11443422      -0.16743838      -0.27623982
Li       2.73286642      -1.00607495      18.79231638      -0.18703048      -0.33905772       0.22308852
Li       1.55020335       3.99893420      23.45073341      -0.13021332      -0.72289926       0.31966314
Li       9.10182116       2.44830864      12.58875994      -0.10629134      -0.82152819      -0.16478977
P        1.69704905       0.90053574      15.37218829       0.92912920      -1.82354896       0.45841061
P        0.04400991       5.32957759      21.38615234       1.15102521      -0.01971960      -0.78686540
P        3.92479093       2.91430207      11.29663114       0.04941668      -0.71323159       1.19476592
S        0.07933221       1.90043816      14.40684527       0.74099470       0.06708063      -0.59245358
S       -1.61521722       6.20121408      20.61464568       0.41803781      -1.50487555       0.73851240
S        1.96766414       5.36990323       8.15842766       0.43664275      -0.99760135      -0.71723430
S        3.32278350       2.25425569      15.43969592      -0.21960072      -0.90748997      -0.04357576
S        1.71100331       6.57230097      21.15003153       0.34843489      -0.45773982      -1.89751003
S        6.06447587       3.43256360       8.16214938      -0.85323532      -0.88379199      -0.43604754
S       -2.60439905      15.14971911      15.54330321       0.39243931      -1.08426921      -1.29980017
S        0.22651337       3.31308022      21.21274265       0.49787055      -0.25398202       0.64552772
S        2.08639556       1.66353935       7.19944592       0.71731353       0.22342756      -0.04340406
S        0.96818894       0.43009667      17.24743583      -0.61875477       0.16866864       1.62276343
S       -0.10321742       5.79330027      23.50371788       0.74511716       0.72552761       0.43611780
S        4.37453366       0.92094748      10.84361276      -0.55496803      -0.05441146       0.13956562
S        3.84548938       3.39068820      22.61335939       0.17839712      -1.73121466       0.39496527
S       -5.01651669      10.68490015      12.58370802      -0.29572422      -0.63631369      -0.05363498
S        0.28031410       4.96463698      17.19855049       1.38433689       1.19302341       1.16768203
Cl       0.68594850       2.24335649      24.54974181      -0.12747562       0.00584914       1.74410692
Cl       3.80258789       3.94453416      18.64840858       0.63243382       1.65130736      -0.25379330
Cl       0.46956155       5.10403890      12.19863451       0.06178619      -0.16958811      -0.02819458
Li       9.51156315       0.85699062      23.55540313       0.52649781       0.19119349      -0.01905666
Li       5.24891920       5.33314850      17.37081049      -0.06774714      -0.63193099       0.20976442
Li       9.76842001      11.50586254      14.59050673       0.13475740       0.01838670       0.04503927
Li       6.04666270       4.00459661      23.25660531      -0.34030178       0.26517731       0.11959544
Li       7.84458268      11.57739222      17.56627459       0.60673238       0.91366559      -0.06903112
Li      11.61890343       4.20584818      14.35589310      -0.47298986      -0.30317854      -0.31735967
Li      12.37044368       2.63823541      23.10689814       0.40912895      -0.77066596       0.90660126
Li       7.86466775       3.58803173      17.36913202       0.76977243      -0.68189922      -0.14870056
Li       9.77544032       6.16360692      13.08644767      -0.87038126       0.02871100       0.20696672
Li      10.62794367       1.56026514      15.24375844       0.85200123       0.68378364      -0.92688019
Li       9.17126503       5.54363324      18.93565073       0.52482547       0.70271817      -0.13362947
Li       5.33545140       2.38852328      13.36849870      -0.54772058       0.28408324      -0.14910681
Li      11.66746714       3.41722906      20.59158506      -0.10841420       0.68177347      -0.36048802
Li       2.14840722      13.19403147      12.80167521       0.25993284       0.01689172      -0.70109063
Li      12.35114762       3.10877270      17.76501384      -0.06056455      -0.12322286      -0.26518961
Li      10.28594082       0.80070151      18.08507517       0.42118323      -0.22500887       0.21650337
Li       9.03937044       3.24106795      22.14307173       0.37271260      -0.05871263       0.10409912
Li       0.11911893       2.85355335      11.95479745      -0.42376068      -0.14231876      -0.42209052
P        8.01087823       0.68644627      15.75984383       0.30426528       0.34895793      -0.70507444
P        7.07269788       5.94846285      21.55971527       1.02086095      -0.44931001      -1.77567129
P       11.86039768       2.94100539       7.02935986       0.57213113       0.29318849       0.95140546
S        6.39199277      -0.01039833      14.43428058      -0.08906121      -0.04126851       0.46289662
S        5.24810286       6.74602421      21.03770167       0.71523543       0.29243305      -0.25080170
S       10.08589701       2.15837146       7.94584803      -1.44605106       1.21643521      -1.73009819
S        8.57731428       2.62566467      15.04783114      -0.38141543       0.84653507       0.12012027
S        8.63270406       7.00200487      20.73034690      -0.95289290       0.28583169      -0.68144467
S       -0.71652636       4.01198824       5.59099089      -1.41671672      -0.71445849      -0.23402715
S        0.53901365      12.41755618      14.24980847      -2.50481260       0.06476949       0.89538994
S        7.21514754       4.04924286      20.75595366       0.25052492       0.69384791       0.15027522
S       12.53717716       0.37117832      10.30237011       0.50118155      -1.63099103       0.08017611
S        7.45342391       0.96687155      17.74506327       1.31989539       0.84250157       0.74262788
S        7.07069006       6.04817147      23.69712055       0.49954380       0.29805594       0.31029087
S       11.17053812       3.56558795      11.91813782      -0.60649411       0.31510705      -0.29267829
S       10.96280152       4.49433431      22.57657826      -0.25024684      -0.58971283      -0.04597358
S        8.74044144       0.23763332      11.22089986       1.34653625      -1.16382386       1.53545517
S        7.54087805       5.92225907      17.07651243       0.16096439       1.39558812       1.47369256
Cl       7.48944242       1.68015995      23.32601220       0.42572081      -0.45697658       0.87393403
Cl       9.96308086       3.20862231      18.84436292      -0.68065309       0.93771698      -0.99828671
Cl       7.13326312       3.51331384      11.75697627      -0.89222431       0.45904095       1.68377554
Li      -1.67042093      10.66756450      18.14274593       0.40956771       0.24762209       0.08960841
Li      -5.88453168      11.48530070      19.45734245      -0.85443950       0.01483259       0.66830527
Li       1.99258259       7.16059792      12.68513254      -0.47772651       0.27731930      -0.50755873
Li      -5.24329011       9.98852690      22.04033660      -0.98021139       0.32185813       0.01875639
Li       1.97073538       5.85223563      18.69027123      -0.50144553      -0.25099574       0.91307967
Li      -3.64936519      10.28996739      14.40346177      -0.13876786       0.01948547       0.57471592
Li      -2.97145096       6.47465959      22.77361515      -0.20676256       0.29035128       0.04916858
Li      -4.22751977       9.73197493      17.18521176      -0.75044970      -0.35583110      -0.15147391
Li      -1.36727079      14.05820893      13.88872802      -0.17833561       0.31516086       0.67980978
Li      -1.31597626       3.89232648      15.81046417       0.35311767       0.33057341       0.20017981
Li       0.45572714      11.29073216      20.13974016      -0.45351785      -0.36393511       0.40647853
Li      -2.78409309      13.56728621      17.54522488      -0.38680898      -0.22163135      -0.49145181
Li      -0.24265191       8.55210935      20.70864284       0.38953652      -0.66569333       0.19632411
Li      -1.22486409       6.57110378      13.16720950       0.03263808       0.17117076      -0.16979493
Li      -0.93528434      10.69663390      15.21121428       0.06437786      -0.35718554       0.25877753
Li      -0.04144468       7.22940865      16.30123381       0.50423509       0.70752497      -0.44103675
Li      -0.64272002      12.74176025      22.08224977       0.57116177       0.02568513       0.57708196
Li       5.30879163      12.04079729      15.11091689      -0.14782781      -0.05970462      -0.80051065
P       -3.19445020       7.32077772      15.41041388      -0.54414845      -0.81373271       0.10510731
P       -3.05509417      12.33128776      20.42310531      -0.59500623       0.51996134       0.69042487
P        2.74100545       9.54073031       9.97739943       0.71925019       0.78442258      -1.00302245
S       -5.02525461       8.29863685      15.19994291      -0.11771635       2.74786819      -0.59461091
S        2.72390610      -0.61339814      21.77547445      -0.37858530       2.50428280      -0.66665440
S       -0.35553612       8.57269415       8.06538187      -0.01044215       0.47778669      -0.69538230
S       -1.64488448       8.36993444      14.44335645       0.75888610      -0.75009306      -0.89678763
S        4.11081912       0.17489986      20.40480911      -0.18086450       1.45693610       0.29738177
S        1.64011479      11.32656504       6.49310753      -1.20437009       0.73814183       0.42788320
S       -3.20406775       5.26412775      14.65666224       0.14224361      -1.14869532      -0.96261281
S       -3.58621520      10.40479021      20.03671115       1.15834172       0.34079652      -0.69100048
S       -1.02206207       7.57203751       4.57971372       2.28470055      -0.96592508      -0.97123473
S       -2.76183563       7.43471365      17.31278638       0.00758723      -0.87919924      -1.08256576
S       -3.08655206      12.68715600      22.49639716       0.46218774      -0.17741306       1.06463386
S        1.47301764       9.26604690      11.69360000       0.24707202      -0.17320744       0.04443648
S        0.12386740      10.10531395      22.23706212       1.23683543       0.64758423       1.11292775
S       -2.57242447       7.21039412      11.10488453      -0.37994157      -0.71923589      -0.64399604
S       -2.74614830      11.46839821      16.29734970      -1.45731970       0.40392417       0.01697700
Cl      -4.01427086       8.45012975      23.04747439       0.43828858      -0.18244569      -1.56707074
Cl       0.21404928       9.49558549      18.58486385       1.17087251      -0.83897122      -1.42409265
Cl      -1.55950041      10.89563500      10.47252639      -0.08565195       0.02185881       0.62883608
Li       4.91889852       9.68395849      23.51740018       0.04263349       0.43424026       0.25426227
Li       1.67966872      12.82341248      16.32739429      -0.24368042      -0.64090955       0.16448883
Li       7.79139986       6.83305572      11.07453247      -0.43394091       0.35185033       0.15019574
Li       2.10672306      10.56730358      23.28024570      -0.40692237      -0.03784253      -0.73067591
Li      12.70075062       6.39527163      17.13458339      -0.21369903      -0.23431026       0.40547218
Li      12.15098556       8.47700520      13.38375663       0.21894873      -0.41212022       0.37734078
Li       7.83081649       8.21897390      23.90609001      -0.63229406       0.35354828       0.06197148
Li       2.69954070       9.91338073      18.41865033      -0.06271471      -0.10394898       0.22235534
Li       9.31350044       8.26727094      14.74037859      -0.84818892       0.53781425      -0.32535326
Li       6.97013339       7.53397626      15.46161591       0.54026890       0.03092736       0.26029776
Li       6.37791052      10.41404455      20.62269149      -0.46664871      -0.10567816      -0.39557129
Li       2.28517840      10.77256677      14.83791994      -0.45138726       0.26316915       0.81365139
Li       9.08398938       9.29452237      21.44869042      -0.36047980      -0.40667290       0.54085897
Li       2.39018753       4.23080290      13.42581274      -0.61472284      -0.08773205      -0.70524476
Li       5.32079616       9.58931967      17.12002592       0.46223331      -0.10134855       0.25293976
Li       6.87744885       7.14121300      19.10790472      -0.14725312       0.54464845       0.06286690
Li       6.57619724      12.39515835      22.71932925      -0.19538656       0.02969439       0.32535008
Li      -5.45223892       8.35872904      12.83633912      -0.75150734       0.09858837       0.18681981
P        3.53190847       7.49920727      15.64450096       1.03909107       0.05283216       0.10561770
P        3.84001457      12.18332179      21.24855657      -1.70301102      -0.56582128       0.50325952
P        7.48089311       9.50214196      10.29439674      -0.98887552      -0.10827300       0.70727417
S        1.75942644       8.06435222      14.99235105       0.13630653       0.61815354       0.29087926
S       10.75052542       1.12743940      21.53971264       0.99115800       0.40202420      -0.84599060
S        5.38051644       9.96336343       6.85706535      -0.54084303      -0.03559156      -1.99429618
S        4.93363482       8.54078230      14.66541782       0.01995136      -1.51705145       0.96249864
S       11.78272421       0.04208564      23.00283999       1.18880313       0.95249392      -0.06869496
S       -3.57221126      10.14879760       6.59738963       0.63430084       0.79567600      -1.26013417
S        3.92720169       5.49774601      15.31538535       1.30551683       0.32262755       0.82570256
S        3.86634182      10.16035821      20.72637044       0.79631065       0.48626121       0.68872288
S        8.84434057       6.00971350       7.07331059       1.43887776       1.52915389       0.32178064
S        3.82318862       7.55442251      17.76253490       0.40111803      -1.09683676      -0.28218296
S        3.93476773      12.20697840      23.28649862       1.98369961      -0.26233653       0.43718363
S        5.98809898       7.06761733       9.15783316      -1.59178715      -2.07283940      -0.77794694
S        7.36509040      10.18085581      22.84892661      -0.57047402       1.08017129       0.70280012
S        3.85709203       5.90272939      11.86953698      -0.43951306       0.38459110      -0.43088001
S        3.59616837      11.60858184      16.71994835      -0.50162853       0.43904156      -0.38882627
Cl       3.21210018       8.25329484      24.04759551       0.29795009      -0.73651050       1.40917711
Cl       7.11498884       9.74814672      18.64570987       0.24827473       0.36542925      -0.92744751
Cl       4.15710440      12.02950026      13.00682529      -1.36870231       0.39546090      -0.28749002
S        8.90460646      10.01285958       9.01983690      -1.48325907       1.31058235       0.02551463
S        0.77314459       0.86433429      10.69925869       1.84040630       0.38249192      -0.53671267
S        1.43056625      13.40606408      10.50343708      -0.63448017       0.63769249      -0.22319611
S       -1.82728063       0.99612947       7.54831199      -0.99690205      -0.64079848       0.43395267
S       -8.28037942      11.51699994      10.82201974      -0.37265723       1.27902400       0.31116548
S       -5.14637869      12.73032450       9.15112789      -0.86231291       0.23683527       0.95166701
S       12.79763589       4.41876896       8.41590245       0.65565682      -1.59613899       1.16108131
S       -1.52413938      13.32383007       7.82606998       0.32785406       0.64875410      -0.27107954
S        5.21055458      12.85030274       9.59392181       1.50598515      -1.45709804       0.61434044
S       -4.96923102       3.53914282       9.39221550      -1.77416531       0.95268360      -1.82790508
S       -3.49988240       6.41920312       7.35064258       0.53305411      -0.13155904       0.11272686
Cl      -2.12243537       2.80644387      17.82712742      -2.37105753      -2.13931053      -0.30585131
S       -2.44101653      14.25019136      11.67189997      -0.38631142       0.52753502      -0.02135578
S       -2.05870529       4.95159472      24.30422697      -1.22258933       0.59080784      -0.17251502
S        4.15896379      -2.05766879      17.48876778       0.95665928       0.05463973      -0.25000189
S        3.86404911      -0.37071699      23.53855608       1.05976541      -0.19215938       0.45689619
S       -2.50688423       2.65151362      11.61830310       1.15291066       0.31932119       0.43515981
S        2.28912962      -0.64579246      14.06573863       0.29715287       0.51329096      -0.24358563
S        5.62182934      13.02362046      20.56313960       0.77730943      -1.14599902      -0.04389037
S        7.63072758      12.61701907      15.42808694       0.26159360      -0.52129920      -0.93552613
S       11.47243688       0.95202407      24.89753760       0.21963380      -0.69997273       0.75379425
S       10.43883994       6.70533431      10.78134830      -0.39025145      -0.98064183      -0.76200144
S       12.82597570       6.50050188      14.41407720      -0.04573001       0.59640341       0.74095511
S       12.48502620       1.11884109      16.69795632       0.86749764       0.07405524      -1.23463707
S       12.95234409       2.72130235      15.37513974       0.28166114      -1.42151723       1.69929553
S       11.80692515       6.27595196      19.25553216       0.60108574      -0.88397979       1.15958034
S       13.20502267       4.75807295      19.32334505      -0.52757336      -1.22712745      -0.84929565
S        9.57724829      -0.72192670      15.55922139      -1.43622744      -0.44166990      -0.02069641
Cl      -6.37719573      11.20214846      17.20365108       1.13631383      -2.39046348      -0.58179515
S       -4.57511380      14.62521119      15.10736459       1.14840822       1.26354271      -0.65797657
S       -4.45011501      13.54467377      19.46148441      -1.09326541       0.35799394      -0.72796974
S       -6.94893084      11.44375010      21.53675012       0.57971402      -0.26010972       1.27215232
S       -1.22695881      12.86136311      19.59933642      -0.81189652       0.86418539      -0.46110842
S        2.17903209      12.99215022      20.20010806       0.20405999       0.10840978      -0.49968363
S       -6.52242561       7.35052649      10.93146952      -0.77517940       0.04803287      -0.08722594
S       10.96551056       6.27477279      15.44333637      -0.42578606      -0.24061886       0.36117751
S        7.67102455       7.22944388      13.37173056       0.49602393       0.53738092       2.52618630
S       10.30127546       9.96273868      13.19351233      -1.42404079       0.87615730       1.12100220
S        7.32640542      10.45882460      15.17280934       0.37405251      -0.28753333      -0.33733167
S       11.08067587       8.81662756      22.52651479       1.15348512      -0.16562658      -0.22866274
S       10.24907901       8.13572167      24.39496800      -0.25364738      -0.23150814      -1.14561125
Li      -6.03738642      11.17561222      10.54506601       0.97257227       0.01838586      -0.06938379
Li      -0.37063233      12.32287626       5.96817127       0.20132244      -0.73723333       0.24888074
Li      -4.23461229      12.80649780      11.44384426      -0.02171914       0.14306946       0.06986975
Li      13.23639791       2.35135523      12.92681718       0.00654706      -0.22884932      -0.48987578
Li       3.60575007      14.36156779       9.96509156      -0.48913040       0.60923060       0.41823193
Li       7.99703267       9.50711207      12.91859648       0.36374716      -0.08802634       0.36447192
Li      -4.06714885       1.57915391       8.44351756      -0.04309213      -0.00549793      -0.31017207
Li      -5.26644226       5.01151512       7.68954928       0.19407380      -0.16924993       0.60673538
Li       0.18346461       0.43590915       8.39249184       0.50622880       0.53436000      -0.02281253
Li      -7.32939113      13.41398812       9.51328348      -0.71788799       0.25939658       0.08293282
Li      10.55792562      -0.86727176      10.19143869      -0.20212303       0.11617312      -0.55469155
Li     -10.17369968      12.85997071      11.56167981      -0.20672911       0.33519621       0.06869680
Li      -8.33625069       9.22693887      10.33850045      -0.23472257       0.14177008       0.79293898
Li      12.19686271       5.57237730      11.77686581      -0.55827803       0.06790753      -0.35150048
Li      -3.22624682       5.03204322      12.07107457       0.14561597      -0.08734481       0.30515900
P       -2.92945234       3.65308648       9.78399432       0.74832636       0.55267249      -0.31453605
Li      -4.57142148       6.31257059       9.72215918       0.30809807       0.32726225      -0.28402228
P       -5.60272899       8.78462935       9.63187647      -2.09126746       0.22478561      -0.53839590
