279
Properties=species:S:1:pos:R:3:momenta:R:3 LayerForceGeomOptConstraint=T E_ref=-1060.446750546866 step=1500 pbc="F F F"
Li       4.23837112      14.63563206      19.40133939       0.11324701       0.45547591      -0.54682150
Li       6.58434356      11.63552437       7.71787114      -0.19038405      -0.67482089      -0.07832040
Li       3.02615379       1.66110848      12.68680132      -0.09699115       0.33340617      -0.02549734
Li       3.87990736       5.99791883      22.85647117       0.09001122       0.16448264      -0.13531018
Li       1.11501335       7.29908967       9.42486114       0.19784247      -0.12689374       0.59097060
Li       6.96474208       2.66115302      10.30133705       0.00663570      -0.02333134      -0.08598614
Li      11.64719628       0.75395234       7.75931992      -0.40653086       0.07544263       0.77512001
Li       2.75987957       5.27737649      10.73185743       0.31253906       0.11494646      -0.40131005
Li      -1.55890756       2.07532697       5.34131955      -0.50376271      -0.04253164      -0.25800493
Li       6.48741423      -0.15608487       9.93782061      -0.22114496      -0.56810230       0.68656250
Li       5.69835873      12.26049578      10.70403227      -0.50248156       0.38237093       0.45233225
Li       0.98529725       5.27850559       3.60191937      -0.51160819      -0.09896471      -0.32833870
Li       3.75581028      -0.30478900       6.60858293      -0.44425730      -0.73161664      -0.20441060
Li       3.46064792       0.79436607       9.80233610       0.46155551       0.14315159       0.04078126
Li      -2.10575674      10.39070120       7.97656407       0.20377562       0.44614475       0.30617821
Li       0.99774671       1.69635872       6.36163753      -0.25221063       0.10923369       0.50731455
Li      -5.58109238      12.83236065      22.95676320       0.21727408      -0.30940382       0.48308433
Li      -1.42139076      14.09548017       9.91185162      -0.33757663       0.18215679      -0.25184285
Li       7.44090432      -0.49149113      12.63799641       0.29142667       0.17864419      -0.52036704
Li      12.98772482       4.84310285      21.84231338       0.32003956      -0.55569567       0.11500146
Li       9.26570921       4.99830509       9.71127361      -0.23277937       0.12760841       0.15900907
Li      -0.95892310       3.42444941       7.62457014       0.46565409       0.08435254      -0.16107555
Li      -5.61215359      10.08927870       7.64412897      -0.49647549      -0.14382818      -0.40706731
Li      11.27247409       5.97731687       7.08475494       0.49383419       0.37385059       0.21431466
Li       5.50480953       2.73205392       6.86289101       0.59847561      -0.41929702      -0.13286450
Li      14.17616259      -1.07849692       9.78651650      -0.05435228      -0.12844622       0.47905699
Li      -7.78664653      10.36118825      11.93559466      -0.56979846      -0.10146226      -0.28444227
Li       4.32491483       4.25129548       8.78822093      -0.40637877       0.00543811       0.24924927
Li      14.87703642       3.73660855       6.53231252       0.42905416      -0.04978599       0.11038833
Li      10.28704942       1.77399939      10.07119284      -0.23011273      -0.14896938      -0.26048469
Li      -3.40686460       8.15325602       8.59494145      -0.86316438      -0.02426195       1.47418399
Li       8.73283380       4.45701039       7.07538069      -0.17633376      -0.12514132       0.01508419
Li      10.41371935       6.58702090      23.04226530       0.11493983      -0.20818983      -1.11354654
Li      10.39836426       9.86948974      10.70075816      -0.19862323       0.00731336      -0.41028418
Li      -4.76310398       9.57330345      11.10638915       0.02905079       0.71286562      -0.50856786
Li      -2.07144827       9.84514146      23.15261753       0.52090219       0.62981244      -0.18450160
Li       0.01191705      10.88933842      10.58945430      -0.54160920       0.08599817       0.09425496
Li       4.06985296       7.37810327       9.55322067       0.49748354      -0.33902629       0.45355462
Li       1.45583317       7.12313614       6.55630941      -0.22987670      -0.00774148      -0.44899605
Li       0.94141578      10.00357828       8.08298560       0.36564869       0.21368755      -0.56424192
Li      -3.98664482      12.26493477       7.20468980      -0.20248345      -0.50120868      -0.13909107
Li      -2.48824216       8.12107919       4.45811692       0.21443748      -0.28865633       0.02763018
Li       5.80959279       5.23566593      10.97486969      -0.48109320       0.23409701      -0.51132755
Li      -3.66030590      12.36310161      12.53688454      -0.19483190       0.29829945       0.27383120
Li       2.90278443      11.87703825      10.14671283      -0.60661185       0.61168705       0.68744355
Li      -1.09387192       8.40066620      11.11951282       0.59100962      -0.56117005       0.33751952
Li      -1.08715735       5.66274839       5.69757821      -0.37191234       0.14305373      -0.08753602
Li       0.37207580      12.87153167       8.03545022       0.05915126      -0.45967603      -0.96582852
Li       1.70033109       7.99573975      23.32409818      -0.59859483       0.53518923      -0.04289936
Li       1.85816944       2.63533025       9.64845804      -0.61542361      -0.07954347      -0.24228674
Li       3.52267896       9.41127725      13.22928147       0.40205031       0.79100020       0.06039822
Li       8.75358309      10.53021375      24.29169221       0.62617148       0.40646012       0.76273110
Li       5.17374822       9.91559334       8.67135984      -0.75558751       0.20899807      -0.41272379
Li      -4.79098164       7.24678172       6.74193324       0.36599236      -0.62126945       0.73158787
Li      -1.43408980       7.84461171       6.70922067      -0.16462869      -0.10793693       0.46793460
Li       3.33667869       9.43767450       5.60569842      -0.41448058       0.02504499       0.48403994
Li       0.62513694       9.53325952       4.78657798      -0.41977794      -0.54752820       0.60746112
Li       6.92620208       6.27218405       8.18979625       0.53250816      -0.38182492      -0.48916447
Li      -1.75300053       5.97345850       9.54523452       0.13703018       0.09799902       0.92094917
Li       3.81541069      11.60185909       6.84980070       0.38847091      -0.30416877      -0.20946338
Li       7.74397959       8.87054982       6.83182288       0.71338252       0.27637459      -0.43717888
Li       5.85724091       7.45253140      12.96860743      -0.67499318       0.07657400       0.18674468
Li       2.25561007       4.18300101       6.58365325      -0.52039977       0.23621661      -0.18732537
Li       9.53888665       8.03129233       8.99591058      -0.20833268      -0.60321828       0.28423217
Li       2.60678556       3.23079870      20.85042817       0.15934504      -0.16536935       0.32812532
Li      -1.98217514       5.70088598      18.34690299       0.20728735       0.50252194       0.47538291
Li      -4.07565843      13.38165938       9.78156865       0.00891417      -0.19428064      -0.49233479
Li      -0.60635029       2.50843531      23.26857206      -0.07849186       0.07845847       0.71950680
Li       5.14784954      -0.06747216      18.49477585      -0.56918753      -0.62477213       1.30976803
Li       1.47449105      -0.35702967      13.19520382      -0.33520092       0.10000087      -0.33897114
Li       2.94848535       1.32266589      23.40552663      -0.47524993      -0.26100698       0.67281413
Li      -1.89995347       1.85239821      17.11913968      -0.06470359       0.61156383       0.35587532
Li       2.19133037       3.60135427      16.91403419      -0.54477731       0.23578543       0.19359894
Li       3.98276757      -0.05094232      15.68258782       0.11906203       0.00722816       0.45540939
Li       5.16469383       4.21263747      20.63760403       0.28286519      -0.43092092      -0.48661160
Li      -0.95388641       1.35887086      10.08298646      -0.81867785       0.54377460      -0.43756929
Li       5.83173488       1.81615117      22.30262935      -0.37380307       0.17176565      -0.20254787
Li      -3.33302368      14.84918999      14.07588529       0.05025445      -0.50797137      -0.81021048
Li      -0.12645729       3.38505868      18.75692152      -0.29897530       0.63963972      -0.14298687
Li       2.55823706      -0.15463868      18.21709825      -0.44425992      -0.25652044      -0.19544890
Li       1.85935356       3.87636951      24.13841499       0.78597221      -0.34879222      -0.16213369
Li       9.07265977       2.43359199      12.43870235       0.70219173      -0.25421854       0.04414626
P        0.28612420       0.93954247      15.65859213      -1.38695367      -0.40316097       0.54324042
P        0.17658755       5.45570997      21.51535737       0.23613486       1.28181471      -0.37815312
P        3.87175876       3.41366702      11.08669373      -0.85037863      -0.81260191       1.28230363
S       -0.97855447       2.30301318      14.77734674       1.49862451      -0.65202281       0.29075240
S       -1.47090996       6.53504859      20.87445363       1.41700657      -0.09277721      -0.55367899
S        2.93921813       5.93040561       8.00509213      -0.32887624      -0.13111448       0.82420689
S        2.37540402       1.59667749      15.10854104       0.21514082       0.21492736       2.01149506
S        1.88033989       6.49192336      20.95721574       0.93839158      -0.93137131       0.94675361
S        6.70070381       4.04109226       8.51823699       0.55183807      -1.27277275      -0.35749217
S       -3.78194900      13.28874089      16.03897982      -0.60940003       0.77885124      -0.63714693
S        0.26180688       3.44528632      21.13135296       0.03947227       1.37003814       0.09675517
S        3.19222444       1.88549144       7.74201589      -0.36637183       0.74988610       0.95116520
S        0.27372342       1.08062951      17.74599562       0.27166089       0.73756923      -0.14364598
S        0.11000086       5.72368539      23.67443289      -0.78035082      -0.09262802      -0.54830730
S        5.04667197       1.50450945      11.36836393       1.54958615       0.05686373       1.36129562
S        4.00678461       3.73578144      22.96179754       0.82062884       0.46749462      -1.91768944
S       -5.93538877      11.59650881      12.06239887      -0.13146529       0.59789996       0.74107596
S        0.20091269       5.25947408      17.33225173       0.08544970      -1.76465668      -0.41543909
Cl       1.02115188       1.88031814      24.72922555       0.00930746      -1.51060751      -0.51289005
Cl       3.62269919       4.16628522      18.78046174      -0.20690979       0.03722398       1.81099148
Cl       0.54249646       5.01415805      12.66845098       0.00725279       0.59334310      -1.12895871
Li       9.43350996       0.49805567      23.50369080      -0.31626059       0.15251770       0.49574206
Li       5.44621328       5.65955389      17.62267329      -0.12083697       0.65850962      -0.00227995
Li       9.69306103      12.56893507      14.16871684       0.30637833      -1.03515119       1.05108495
Li       6.34804729       4.19997152      23.86779050       0.18810853       0.22070079      -0.14425599
Li       6.04287289      13.01952808      17.37556882      -0.15836107      -0.13936536      -0.09676098
Li      11.03923130       3.25460128      14.80352537      -0.31347993       0.67630444      -0.40165025
Li      12.25936281       2.55883102      24.05231303       0.08745359       0.11025650       0.82076816
Li       8.29906661       3.52757082      17.02787190      -0.02403522       0.46141956       0.71504325
Li      10.59050822       5.68403285      12.29336369      -1.01958739      -0.17810362      -0.22855282
Li      10.46231624      -0.02302570      15.39881305      -0.06615690       0.58331311       0.49619749
Li       9.00110757       5.06675847      19.34993929      -0.17028803       0.16046060      -0.23473572
Li       6.04109989       2.33830416      13.43537069      -0.55588144      -0.64536237      -0.24287601
Li      10.94623005       2.97609830      20.84368648       0.34604399      -0.33297771       0.14848242
Li       1.87778255      12.51959766      12.76662786       0.06168018       0.38458947       0.59760227
Li      12.51496851       2.65219932      17.71021674      -0.18009201      -0.51471510      -0.03285759
Li      10.07404714       0.41370752      18.46703165       0.03254528      -0.70751379       0.14783463
Li       8.99013392       3.99516125      23.41968644       0.09990257       1.26639713      -0.13003523
Li      -0.34431758       2.46024372      12.48697829      -0.12667976      -0.07225938      -0.74373307
P        7.70142533       0.30464367      15.43925805      -0.69604173      -1.25863842      -0.46840556
P        7.35802307       6.04625593      21.75725062      -1.74771542      -0.13183160      -0.24245275
P       11.76104259       3.23872405       6.77094221      -0.80641778       0.60588545      -2.92996358
S        5.87893075       0.19736176      14.45120114      -0.94336740      -1.84391314       0.11313811
S        5.61723287       6.78690845      21.02826373      -0.46583480       0.79792802      -0.99115431
S       10.03806063       2.63460601       7.70005401      -0.42813597       1.35661798       0.66896521
S        8.58215952       2.15685322      14.80044233       1.26016347       0.55758538       0.54098266
S        9.16506170       6.88100263      20.88984718      -0.32012085       0.41364130       1.31056837
S        0.13962692       3.71356571       5.41540208      -0.31892687      -1.19579882       0.32374997
S        0.41763417      12.60390488      14.46388252       0.01003950       0.61422571       0.94656861
S        7.41203530       4.01447145      21.13722772      -1.30886606       1.21786338       1.03916585
S       12.25044763       0.23401602      10.07780270       2.44180759       1.61633231       0.30676050
S        7.65665206       0.45716501      17.48213500      -3.09621539      -0.60928353       1.75558672
S        7.67723073       6.34426247      23.82149452      -0.89226906       0.14946648      -0.72942572
S       10.97759387       3.67516006      11.22795610      -0.63196905      -0.08055847       0.50456739
S       11.22547998       4.25885763      23.05235000      -1.31230331       0.45757919       1.74524684
S        8.44838159       0.57846009      10.84809713       0.03293549       1.03072337       0.37666773
S        7.98900215       5.79507641      17.38367276      -0.07271311       0.60875681      -0.00372411
Cl       7.50986173       2.23756876      24.18322958       0.65157148      -1.06175711       0.00550689
Cl      10.00403651       2.96417341      18.76033738      -0.28375169      -0.62325678      -0.92838878
Cl       7.69795322       4.38183714      11.82689274       1.39518014       0.32860707       0.60076748
Li      -1.54506086      11.14789561      18.98292413       0.32365241       0.03350329      -0.42469448
Li      -5.61651904      11.74608930      19.91069209       0.11404263       0.09503226      -0.47719847
Li       1.66049777       7.10818308      13.18391650       0.84905887       0.26455956      -0.17997630
Li      -5.02972619       9.76034240      22.43799334      -0.15308046      -0.16346804      -0.19905969
Li       1.97313205       6.09309527      18.59674945      -0.28483836       1.06167267       0.25168036
Li      -3.13139350       8.54510704      13.19051162      -0.45781186      -0.18771036      -0.35735100
Li      -2.63426089       6.47532753      22.87306962      -0.52968342      -0.09419674       0.73519288
Li      -4.50403146       9.81697805      16.57037918       0.33908162      -0.01820914      -0.04735997
Li      -0.55157742      13.91586355      12.54622816      -0.72268809       0.52265817       0.57683724
Li      -0.54762706       4.72388202      15.25399917       0.23169421      -0.21452536      -0.19737273
Li       0.72381959      11.46776943      20.76935666       0.31577845       0.37278892       0.27307268
Li      -6.01552440      11.94968282      14.78533431      -0.11308478      -0.31439034       0.11735663
Li       0.24631495       8.74847912      20.54997535      -0.10884705       0.42385057      -0.29917418
Li      -1.58235495       6.28312385      13.10084203       0.60793659       0.62782058       0.30780291
Li      -1.35270126      10.87453781      14.27241139      -0.44972088       0.21762651      -0.02798287
Li      -0.43459726       7.51783229      17.06717243       0.17945630      -0.63677834      -0.21080196
Li      -0.57452851      12.26965925      23.22213566       0.06292497       0.44579403      -0.05719831
Li       5.05964599      12.08478929      14.63091877       0.20114089       0.21514362       0.16743617
P       -3.00906388       7.20072620      15.57422065      -0.52420669       2.49646609       1.02475708
P       -3.02889468      12.44011573      21.48818015      -0.44264680      -1.63104102      -0.03894517
P        2.57250175       9.49319874       9.91302510      -0.59523427       1.21796743      -0.80643944
S       -4.76456452       8.13477291      14.75428497      -0.95901074       1.02660555       0.08541341
S        3.40544836      -0.30350459      21.17878755       0.05928376      -0.77205734       0.79365684
S       -0.73804715       8.49903971       8.79859924      -0.59041515      -0.63852043      -0.39035405
S       -1.36046875       7.98736670      14.60417289      -0.22278168      -0.89508593      -0.52999982
S        3.87276774       1.34743775      19.91158373       0.84898547      -0.09931674      -0.67510230
S        1.36613269      11.36192013       6.29022736       0.44471528       1.69277373       2.43849430
S       -3.12873831       5.23827367      14.97066732       0.20221987      -0.34662002      -1.18698343
S       -3.39903096      10.70100814      20.47542378       1.96074245       0.23551799       0.88962627
S       -0.09668048       7.43205450       4.77840951       1.02986883       0.26496236      -0.18194478
S       -2.94719388       8.00299269      17.55340810       0.69432968       0.86740262       0.56346381
S       -3.00920905      12.14382361      23.63919693      -1.45838502      -0.08617552      -0.70818760
S        1.42443137       9.28162815      11.66777545      -0.66641890       0.85441142      -0.28157269
S        0.48991891      10.04203983      22.75924802      -0.09861558      -0.17089851      -1.77004500
S       -3.03805556       6.82704809      11.37193545      -1.58188086      -1.18515961       0.15320360
S       -3.49132908      11.53193164      14.99817023       0.57235780       0.54692744      -0.33792183
Cl      -3.79392075       8.16713411      23.50508279      -0.82825721       1.18126259      -1.16982904
Cl       0.26676970       9.75529720      18.59957904      -0.58127458      -1.06710234      -1.45419103
Cl      -2.38541379      10.37536317      11.88052666      -1.28295152       0.50181952      -0.91683443
Li       6.11868617       9.06317292      20.84432195      -0.33086911       0.30225873      -0.18682658
Li       2.05507219      13.29195307      16.07081060       0.23848219      -0.12446055       0.26136478
Li       8.40168703       7.51647605      11.22911598      -0.17322742       0.00921299       0.17859990
Li       2.88412034      10.26289773      22.78003465      -0.37762657       0.29260771      -0.45374684
Li      10.82296056       5.77873185      17.38391831       0.19289931      -0.76400034      -0.81938529
Li      10.67398235       8.17605057      13.32729250       0.28154321      -0.14056061      -0.42021225
Li       6.24286404       8.37266358      23.73437713      -0.31494852      -0.22248771      -0.20377789
Li       2.85619915      10.57011813      18.37352363       0.07546947      -0.25205446      -0.66717060
Li       9.02747541       9.69022954      14.74652133      -0.59710254       0.25520387       0.50027936
Li       7.17140987       6.64237327      15.33781516       0.02515876       0.36370672       0.93318576
Li       7.40437151      11.10684876      20.48332769       0.63864338       0.19802942      -0.08706933
Li       1.90495209      10.82815243      15.40671666      -0.10399981       0.39693753      -0.39756482
Li       9.26513928       9.09563493      22.41850194       0.08023656       0.31261598      -0.45097837
Li       3.40256224       4.61481972      13.40264217      -0.01603454       0.16348592      -0.60097297
Li       5.58587399      10.23822998      16.83106469       0.36689360      -0.27458862       0.05389142
Li       8.14672488       7.57262905      18.68249667      -0.45359875       0.24919521       0.68542662
Li       5.92982523      12.30916227      22.64326849       0.68308970      -0.00768160      -0.39415707
Li      -5.13740559       6.84651082      12.71896285       0.44705040      -0.11895037      -0.45214182
P        3.74160587       7.53306700      15.87671759      -2.22474667      -0.43544340      -0.61165980
P        3.89841386      12.32839991      20.83738583      -0.59969016      -0.76780436      -1.27337568
P        7.35668999      10.09436856       9.93132766       0.00531722       0.56149993       0.10109764
S        2.01385337       8.31298344      15.13038974       0.09587335      -0.96929934      -0.75973811
S       10.25112051       0.47540174      21.27578804      -0.69382971       0.99418310       0.21778937
S        5.40570282       9.88246242       6.39861421       1.45845786       0.47246071      -0.33674578
S        5.27632143       8.52659898      14.99428023      -0.29768041      -0.49575877      -0.69685205
S       12.06971093       0.39314195      22.19217825       0.39593550       0.19556721       0.24325902
S       -3.62758795       9.58488768       6.38072740       1.14348747      -1.46535205       1.49160978
S        4.11985541       5.61209514      15.57720992       0.06790676       0.09081373       0.87537351
S        3.95760723      10.32718822      20.50986294       1.38340945       1.37557467       2.35263923
S        9.10456124       6.62642945       7.09815821       0.01960484      -0.62917965       1.17865156
S        3.77967765       7.68728804      17.92256774       0.29512217       0.60974665      -2.07640961
S        3.70657662      12.58621079      22.92716508      -1.07937304      -1.21602200       2.59602050
S        6.53946411       8.11477094       9.89958943      -0.91505686      -0.64186474      -0.64072319
S        7.06689822      10.16409311      22.50896008       1.27492871      -0.80056042      -0.02383059
S        3.98479164       6.82335435      11.82949628      -1.18382091      -0.61233422      -0.61182052
S        3.78491034      11.95367651      16.54987264      -0.18894207       1.42848493      -0.23047114
Cl       3.84578081       8.15324890      23.80632549       0.42692841       0.32880799      -0.64945657
Cl       7.19914367       9.75935088      18.65072266      -1.00967655      -0.50912936      -0.72619670
Cl       4.10027896      11.64731817      12.43459864      -1.27043435      -0.26196128      -1.21754452
S        8.95105820      10.36733554       8.43017767      -0.27330792      -0.37175800      -0.62517635
S        1.28798283       0.91320494      11.12701912       0.62996196       1.03779753      -1.23560876
S        0.97455669      13.07186502      10.46125414      -0.32591859       1.11705132       1.58617467
S       -0.87273438       0.91914926       7.71789520       0.23158060       0.32630877      -1.72945578
S       -9.08415029      10.59860474       9.79016801       1.13357507       0.55338840      -0.59095966
S       -5.81384002      12.26883975       8.45996466       1.55787408      -0.04667015       1.63208426
S       12.99442089       4.57274516       7.99660729       1.10278416      -0.52504167      -1.22306180
S       -1.99923445      12.88543999       8.04351399       0.88689892      -0.67868513      -0.18181118
S        4.61901404      12.92649499       8.74128488      -0.67199787      -0.54115550      -0.91786335
S       -4.76857614       3.43056324       9.03578460      -0.47237746      -2.04554352      -0.93779335
S       -2.74252688       5.83984372       7.00289203       0.09336545       0.99533144      -0.11235653
Cl      -2.36574198       3.16924522      18.79044974       0.08755506      -1.13190409       1.76808374
S       -2.86003390      14.33664202      11.79959796       0.72493927      -1.85469882      -0.57999725
S       -1.68751783       4.65125140      23.96519424       1.18112813       0.21233061       0.65510439
S        3.96068607      -1.61164237      17.26010625       1.30518123      -0.95977127      -1.50298563
S        4.41336671      -0.47436855      22.99665826      -0.00425174      -0.20325852       1.08922233
S       -2.61243447       2.38617615      11.48811736       0.57575497       1.72417729      -0.65047044
S        0.07564841      -0.90569985      15.05971706      -0.38015758       0.61002848       1.07070668
S        5.89763774      13.08649757      20.03129927       1.49199396       0.05606730      -0.33238192
S        7.25097334      13.14953257      14.98608568       0.77714577      -1.42492964      -1.03406622
S       11.67980967       0.34742680      24.18387722       0.74007648      -0.76166520      -0.94825717
S       10.70288560       7.42192132      10.80825626       0.62675053       0.00808670      -1.06251410
S       12.43346483       5.02513995      15.70380078       0.12019534       0.21637023       1.09514326
S       11.98201844      -0.12560363      17.14174199       0.34228694       0.86495436       1.56680842
S       12.39778544       1.41077969      15.70179506      -0.56651613      -1.18931531       1.90933568
S       12.30810986       5.73602550      19.34270624      -0.21905376      -0.15377976       0.99705207
S       13.26319731       3.89921476      19.74025402       0.46051948       0.52854495       0.55769308
S        8.92914430      -1.10098337      14.39115825      -1.56829526      -0.25236619      -0.53787148
Cl      -5.98407949      10.84915009      17.81106944       0.13545156      -0.03176798      -1.30691635
S       -5.55238031      14.27578521      15.33957761       1.09148176       0.13541101       1.49191524
S       -4.26411953      14.01785338      21.09001638       0.61586237       0.49753698      -0.30306722
S       -6.79144874      10.99183448      22.35412792      -1.22848104      -0.22169761      -0.31422508
S       -1.12827781      13.06903578      20.84186790      -0.71118792      -1.01872868      -0.68339750
S        2.41849109      13.13760124      19.73159159       0.13552867      -0.45312320      -1.32295545
S       -6.60145541       7.83621471      11.07134826       0.37901005       0.31995201      -1.13923483
S       10.72980312       5.90086666      14.74532702       0.88450849       1.93546823      -0.56380943
S        8.21281819       7.62461350      13.51028506       1.66568534      -1.63835632      -0.41646715
S       10.42320354      10.72147970      12.98396147      -0.20376141       0.21531165      -0.01965333
S        7.34448756      11.04663804      15.09788248      -0.08545617      -0.21626568       1.81788332
S       11.23896216       9.85126630      23.30857339       1.19874884      -0.24627931      -0.18912846
S       10.28176908       8.76788235      24.73288702      -0.23496123       0.36436556      -0.38122994
Li      -6.61288589      10.71603980      10.03456983       0.13045130      -0.35526369      -0.07607722
Li      -0.96335297      11.78171185       6.23306401       0.90017009      -0.12813675      -0.21026104
Li      -6.97875413      12.92434449      10.31666674       0.67735050      -1.04502573       0.15545333
Li      12.74169654       2.40270946      10.08334785      -0.16375812       0.48896929      -0.07190748
Li       2.77206416      14.42716625       8.97510697       0.04510737      -0.59121123       0.08966875
Li       8.15469029       9.96708999      12.47385899      -0.10174467       0.12543800      -0.54399403
Li      -3.32859013       1.15140709       8.59064944       0.01425637       0.14416234       0.45890225
Li      -3.82992273       3.93495465       6.93251779       0.65403279      -0.05835546      -0.13180380
Li       0.65758185      -0.19997969       8.82632080       0.39471536      -0.04210881       0.22577994
Li      -8.04605160      11.82185145       7.93212600       0.72563217       0.32404413       0.27236882
Li      10.40607608      -0.18073528      11.68234073       0.55683194       0.14170074      -0.14165426
Li     -11.09096522      11.31630121      10.56913117       0.86191372      -0.35921084       0.07432651
Li      -8.56666129       8.44030369       9.76963458       0.02472034       0.08917699      -0.41745987
Li      11.88668627       5.23709137       9.93111674       0.68593420       0.16351153       0.14408688
Li      -3.72090570       4.73804401      11.83574214       0.11112190      -0.09473008      -0.43455194
P       -2.72557628       3.50428293       9.62407634      -0.70653273      -1.78741480      -0.56415891
Li      -4.87897889       5.75142991       9.74805198      -0.46924462       0.24160707      -0.69497483
P       -5.96342402       7.95314638       9.01984447       0.38385937      -0.09702870      -0.37409702
