279
Properties=species:S:1:pos:R:3:momenta:R:3 LayerForceGeomOptConstraint=T E_ref=-1057.7848769797974 step=1200 pbc="F F F"
Li       3.84594144      14.78892497      21.20752840      -0.07805452      -0.48592800      -1.08527398
Li       6.73360658      12.08607215       7.72832171       0.42767913      -0.69294662      -0.05834998
Li       2.54019148       2.01536728      12.56914062      -0.25825793      -0.22214152       0.22842482
Li       3.65437874       6.06635320      22.56174853      -0.34959114      -0.44519040       0.22434136
Li       0.87013624       7.31205701       8.34647686       0.19426902      -0.18541083      -0.45585990
Li       6.35881521       2.70493316      10.42941014      -0.42665953      -0.28122351       0.11878813
Li      11.08320117       0.22776289       7.17496958       0.16681868      -0.18526322      -0.09388644
Li       2.39050349       6.00579951      10.39974960       0.41496276       0.67241209      -0.22019352
Li      -1.93143250       1.44108148       5.78898799       0.11441972       0.63197855       0.86052113
Li       6.63794119      -0.07125087       9.54969640      -0.34487090      -0.25459682       0.20023046
Li       5.67913413      12.01251732      10.70330188       0.24633528       0.29706242       0.03683093
Li       0.59302998       5.27600405       4.48667228      -0.51536735      -0.39222458      -0.80362744
Li       3.17239842      -0.02409899       5.95366815       0.75674244      -0.06608197      -0.90875445
Li       3.65711173       0.78032975      10.44580292       0.22688119       0.08357490      -0.16018289
Li      -2.22262775      10.42638792       8.07734531       0.15731488      -0.49911766       0.07386090
Li       0.78204547       1.72603538       6.64918034       0.17471634       0.45269719      -0.49752707
Li      -5.34935903      12.77075098      22.84954824      -0.14543930      -0.30906057       0.35682631
Li      -0.94995551      13.81855171      10.48588212      -0.16261611      -0.45965307       0.33274541
Li       7.39495266      -0.25929190      12.76281912      -0.64564138      -0.21568447       0.26414872
Li      12.60765869       5.28587604      21.80332659       0.13997826       0.53389034       0.33185591
Li       8.81815170       4.06467376      10.33113776      -0.39915903       0.03376126      -0.23912971
Li      -0.68243057       2.87892543       8.04648882      -0.38112695       0.21877183      -0.52228318
Li      -6.41248246      10.56650688       6.56242039       0.02533778      -0.27680563      -0.07019207
Li      10.55810229       5.41590424       6.77875338       0.32451682       0.76230287      -0.23468694
Li       5.23116765       2.28319815       7.29993400       0.26731057       0.04695452      -0.63557212
Li      13.15618957      -1.65331187       9.97282654       0.46071679       0.44911092      -0.05104218
Li      -7.34293827      10.22018502      11.64624482       0.56583428       0.93748567      -0.10136529
Li       4.22269761       4.26558257       8.51491902       0.47028030       0.07083146       0.21506604
Li      14.89692343       3.95747387       7.67278264      -0.01488860       0.15095642      -0.57165945
Li      10.10396248       1.65682355       9.69664769      -0.21184418      -0.18110065       0.61063541
Li      -3.81467673       8.32931470       8.31525008      -0.10872859       0.24609133      -0.05004807
Li       8.02215081       4.46857457       6.74465174      -0.07819197      -0.54952915      -0.35471979
Li      10.18325580       6.51319667      23.27921943       0.15872874      -0.14495691      -0.02733391
Li      10.10138831      10.11294756      10.93971131      -0.45868787       0.16177337       0.67560015
Li      -4.81915180       9.35126211      11.73011373       0.60217097      -0.19705607      -0.10478858
Li      -2.09753695       9.75717501      23.11641332       0.00535706      -0.49596977      -0.27199808
Li      -0.18628704      10.69521053      10.38356859      -0.59540580       0.49899026      -0.46466363
Li       4.59219002       7.60327880       9.32524403       0.48497831      -0.17381691       0.09334487
Li       2.33531348       7.25499009       6.00214970      -0.24548296      -0.55736074       0.68700847
Li       0.74341261       9.83970376       7.52297192       0.61638753       0.37513405       0.09940034
Li      -4.17309709      12.28157432       7.58488708      -0.36100730      -0.36286683       0.20793487
Li      -0.94484350       7.40980568       3.09080090      -0.54109086      -0.80639520      -0.49429721
Li       5.59562086       5.15776105      10.65817016      -0.16061526      -1.09523017       0.54182441
Li      -3.35170724      12.01402778      12.99728194       0.06927617       0.32490391       0.24185242
Li       2.63046375      11.56813706       9.26444140      -0.84118912       0.70491579      -0.03332757
Li      -1.03086504       8.04903407      10.84142150      -0.48186705       1.19782542      -0.26860278
Li      -0.91734630       5.65820931       6.27803212       0.24886946       0.10855469      -0.64254559
Li       0.33810654      12.86651995       8.49538817       0.09755522       0.41831837       0.54993891
Li       1.15990104       7.81483202      23.71526139       0.18342250       0.37319160       0.24823105
Li       1.90393313       2.82069953       9.80994714      -0.14888471      -0.03075164      -0.41593931
Li       3.98338997       9.46808770      11.87545300       0.58594719      -0.01602369      -0.47587492
Li       9.22165923      10.70031775      24.20993943       0.23675886       0.27471406       0.04450045
Li       5.03255288      10.17286767       8.67719216      -0.03322362      -0.44787478      -0.41624656
Li      -4.90499797       7.69439230       5.91728291       0.33897861      -0.23392119      -0.44099535
Li      -1.85141682       8.45671343       6.50696071      -0.23580533      -0.16588351       1.01341098
Li       3.53250904      10.12490728       5.27961000       0.35355508      -0.32759662       0.36218853
Li       0.27325223      10.11572985       4.64919352      -0.86385845      -0.28719009      -0.46359138
Li       6.62480794       6.50502653       7.89835611       0.18784741       0.50352919      -0.16903394
Li      -2.21414675       5.83533998       9.10004668       0.19332418      -0.37886647      -0.19226746
Li       3.70722639      11.70378617       6.98055931      -0.33518341       0.52227262      -0.28981103
Li       7.56454718       9.13098481       6.78639938      -0.43213455      -0.15794729      -0.11389768
Li       6.41122266       7.71263126      12.72797032      -0.26398976      -0.71895742      -0.04544883
Li       1.83550050       3.91375157       6.59711126      -0.20702716      -0.15942943      -0.64610437
Li       9.46396984       7.98060814       8.83710269      -0.54386823      -0.61828348       0.56301441
Li       2.94314372       2.80524745      20.50419108      -1.40730362       0.53546748       0.68831425
Li      -1.90228685       5.77772054      18.01286785      -0.30231630      -0.02122205       0.61372834
Li      -3.85540572      13.07957861      10.53292436       0.47851023       0.21702499       0.44184283
Li      -0.75440728       2.97642222      22.48541254       0.12667990      -0.11426795       0.02285551
Li       5.60982265       0.07616328      17.95699106       0.04868952       0.59535256      -0.20758538
Li       1.13695367      -0.37886182      13.22605136       0.36964076       0.04799314       0.12125535
Li       2.67167091       1.43937831      23.06907066       0.80002614       0.16960562       0.87232548
Li      -2.21365220       1.91127903      17.30766037       0.07124510      -0.17411745      -0.71836518
Li       2.63434521       3.92117629      16.24228750      -0.03251307       0.17525609       0.51410621
Li       3.63360052       0.13221743      15.38166911      -0.04340875       0.50571801       0.27216630
Li       5.16472384       4.17670998      20.80535339       0.23311120       0.08906745      -0.36233490
Li      -0.65050932       1.32207744      10.31064417      -0.69221492      -0.51935386       0.09339431
Li       5.27695394       1.31626965      22.22249080       0.26770488      -0.00527380      -0.89411476
Li      -3.52425266      15.22391005      13.89669758       0.60541621       0.18153083       0.74436474
Li      -0.25458449       3.44954427      18.47373905      -0.35300722      -1.15874046      -0.63113537
Li       2.60929522      -0.25002994      18.18442316       0.65319542      -0.00545402      -0.66524221
Li       1.58939327       3.73309242      23.26384483      -0.54948471       0.73983814       0.28033935
Li       9.68181265       1.54822723      12.80755691       0.45328317      -0.41739310      -0.24150004
P        0.12138190       0.89186753      15.78096814      -0.67630950      -0.37112506       0.29068089
P        0.17648785       5.64505445      21.24196383      -0.19281051       0.27583482       0.50105989
P        3.83147960       3.57183200      11.00321669       1.84192183      -0.60665902       2.07399165
S       -1.35543564       2.18092146      15.23267067       0.15403595       0.87525752      -1.87098262
S       -1.29468595       6.84404307      20.50465532       0.78612721      -0.69906140      -1.02464189
S        2.75875932       6.00961338       8.00001056       1.82178848       0.68620841       0.58877241
S        1.96190403       1.83370120      14.84211715       0.39403770      -0.67717742       0.21656336
S        1.86836736       6.65931377      20.82223938      -0.61347233      -1.02348661       0.90883156
S        6.42531079       4.19002146       8.57671014       1.00044940      -0.44715590       0.02583364
S       -4.09880660      13.57561756      16.07953757       0.92110078       0.22775190       0.54680070
S        0.57932716       3.61252706      20.75765532       0.05025372      -0.47835031      -0.47626223
S        2.97275211       1.68006302       7.67910134       0.47923654      -1.14865918       0.71763221
S        0.31304198       1.00833873      17.80037849      -0.78964163      -0.28881888       1.04853904
S        0.14864987       5.47795247      23.44589483       0.63480740      -0.21400757      -0.52075098
S        4.84990063       1.96403679      12.13967837      -0.82193827      -0.86389560       0.16242520
S        3.97422871       3.63729255      22.68127532       0.44948711      -0.06535110      -1.12248107
S       -5.59618182      11.72451203      11.71018316      -0.81298163       0.25807314       0.75089369
S        0.60393080       5.40374521      17.23216558       0.03684563      -2.10116585       0.96605899
Cl       0.59639238       1.81701663      23.96809886       0.53539115       0.87734042       0.65144206
Cl       4.00076834       4.17863812      18.84741541      -1.29027073       0.03539395       0.92214301
Cl       0.82009909       4.86742767      13.11864426      -0.34522598       0.29899079      -1.40321558
Li       9.06375772       0.70645476      23.20120477       0.15130255      -0.25614214      -0.40999289
Li       5.81400504       5.09288602      17.72736032      -0.07442064       0.51793430       0.40990345
Li       9.46916470      12.81188190      14.60713231       0.01450928      -0.07700143      -0.05291573
Li       5.99255653       3.73103303      24.16212457       0.07379736       0.07135855       0.29173387
Li       5.74494978      12.73449123      17.89777972      -1.18006107       0.21506748      -0.52963916
Li      10.78745618       3.71288923      13.78433160       0.69456012      -0.06803513      -0.17335870
Li      12.27895422       2.84746093      24.33795337      -0.02682863      -0.94529077      -0.22788374
Li       8.50418725       3.46578888      17.21261535      -0.08331257       0.46823570       0.25929299
Li      11.64308254       5.87524775      12.69080791      -0.79218324      -0.71251982       0.38019161
Li      11.13424788      -1.23099987      15.20669615       0.36017059       0.13639689      -0.73719718
Li      10.29974768       4.53150889      20.31541633       0.31476956      -0.17566228       0.18323103
Li       6.94220050       3.18744095      13.50711489      -0.12813475       0.58427015      -0.15386009
Li      11.83668539       2.39708682      21.27215281      -1.24071632       0.74607860       0.30248380
Li       2.11794046      12.14224927      12.61075567       0.26911226       0.44543864       0.10825628
Li      12.20938754       2.81132374      16.22775016       0.24654122       0.53386523       0.48939525
Li      10.36551815       0.41808472      18.23794616      -0.30009983      -0.28354073       0.52246149
Li       8.65508770       3.77958121      23.29047285       0.46611538       1.15965880      -0.61954372
Li      -0.01769369       2.46857952      13.15962158       0.85947036      -0.46275655      -0.75682925
P        7.91754990       0.66678148      15.38172802      -0.67605705       0.43816958       0.59995103
P        7.39424104       5.92480715      21.87873692       0.72134621      -0.56207686       0.55775057
P       12.06162774       2.97578986       7.56538079       0.28691116      -0.51307920       0.22531748
S        6.10305692       0.68481032      14.57405341       0.78683661      -1.50602869       0.91446476
S        5.65299976       6.63457643      21.09713978       0.73144769       0.58876172      -1.27226974
S       10.03369108       2.64703472       7.10000219      -0.83657042       0.45051862       0.90635006
S        8.96116646       2.48099019      14.80570665      -0.00277761       1.05249420       0.15481857
S        9.06161863       6.85099298      21.26900413      -0.53553937      -1.12352688      -0.66069438
S       -0.31111294       3.52162849       5.55200796      -0.13361939      -0.66893975      -1.25911416
S        0.71091613      11.88562335      14.43736860       0.30642281       0.91188482       0.31495329
S        7.65765346       3.98964604      21.07569619       0.50776379      -0.79444927      -0.60316279
S       11.44934143      -0.21222062       9.34959903      -0.23869635      -0.01994695       1.43213056
S        7.91176607       0.55592302      17.43789556      -0.33021481      -0.54013143       0.63962846
S        7.41074610       6.01324387      24.04981052      -1.69015003      -1.48735318       1.15610649
S       11.01708765       3.43623467      11.32774573       1.07736748       0.84133973       0.97122911
S       11.02305171       4.18902513      23.06204679       0.35044961       1.70410628      -0.87139392
S        8.07643849       0.94327836      10.80839242       0.18206510       0.76887055      -1.01580592
S        8.12085413       5.74318720      17.51690749       0.51707808      -0.04202449       1.03051147
Cl       7.20232785       1.79407823      23.92144007      -0.80413820       0.02341029      -0.36001825
Cl      10.64332780       2.94962210      18.12155833      -0.17902372      -0.01486422      -0.26475649
Cl       7.45956311       4.85094622      11.93209695      -0.12183883      -1.61654157       1.87905955
Li      -1.61557011      11.26242697      18.87941301      -0.09234147       0.78717709      -0.61190606
Li      -5.90412554      11.23742752      20.58752477      -0.35500738      -0.12332965      -0.02231727
Li       1.88149895       7.11243903      12.94074934       0.18229222       0.34166259      -0.48509987
Li      -5.11706032       9.74340546      23.03685582      -0.04501761      -0.13756228      -0.33456425
Li       2.38212048       5.91665934      18.58875155       0.28502396       0.16243717       0.16643449
Li      -2.57509360       8.18183061      12.96060646      -0.27711246      -0.58598004      -0.17150803
Li      -2.94766032       6.53929395      22.40759738       0.08414086       0.74325623      -0.81020832
Li      -4.86023436      10.26097697      16.79608187       0.18182029       0.27402546       0.49827729
Li      -0.08209170      13.51313444      13.03385957      -0.36271612       1.23371175      -0.76039700
Li      -0.39386122       5.08661110      15.19681849       0.24531549       0.05262955       0.81028899
Li       0.87856429      11.11884706      20.87221143      -0.08147175      -0.91319364      -0.16243737
Li      -5.75694783      12.28489269      14.20001491      -0.26060126       0.00694290      -0.32578700
Li       0.41014147       8.65879140      20.10299478      -0.00954841      -0.20959584       0.00150312
Li      -0.86342553       4.96183033      11.64667522       0.38397444       0.26770650      -0.24348624
Li      -1.24151879      10.72858041      14.96946845       0.66895895       0.38448845       0.32596525
Li       0.48520123       7.54616571      16.48267350      -0.19212838      -0.15379747       0.01356628
Li      -0.66410218      11.99521181      23.20384512       0.55379686       0.04345063       0.49456174
Li       5.09671507      12.41024749      15.04695281      -0.08866353      -0.05965486      -0.20854274
P       -2.95366107       7.31937660      15.39100869       0.24808580      -1.34637062      -0.70770164
P       -2.92754574      12.21031142      21.45714762       1.03965010       0.03879368       0.19815412
P        2.51706859       9.16355357       9.59844952      -0.83456288      -0.89481842       1.59410575
S       -4.43302334       8.47026703      14.46690345       0.43114436      -0.96363429       0.93635783
S        3.04487279      -0.38515130      21.12412193       2.21119936       0.71334474       0.79551992
S       -0.91639081       8.62940332       8.60467103      -0.26565857      -0.75458288      -0.02743465
S       -1.10538055       8.22892886      14.86618397      -0.22521185      -1.91373491      -1.04661224
S        4.33671256       0.77949967      20.00017698      -0.72692345       0.91500384      -1.64024677
S        1.50767748      11.51267457       6.16025032      -0.74249448      -0.14232686      -0.62392676
S       -2.99476408       5.32850575      14.81586849      -0.50647134      -0.87436307       0.57449775
S       -3.21188809      10.29257680      20.66179044       0.27568124      -0.33444871       0.88824446
S        0.22773598       7.50197200       5.02571682      -0.52583163       1.72199294       0.22735980
S       -3.35273954       7.69640593      17.34657918      -0.97395964      -0.49798275      -1.18915312
S       -2.98327709      11.95607804      23.50500047      -0.41082987      -0.48124393       0.05302135
S        1.32263638       8.87519397      11.37097450       0.53015457      -0.30564840       0.06378151
S        0.28567369       9.62679251      22.66588393      -2.18811081      -0.79328451      -1.80224491
S       -3.06080535       6.30125311      11.35101216      -1.11196525       0.28178346       0.32585176
S       -3.35078002      11.71034301      15.36312608       0.54897774      -0.21189013      -0.14359361
Cl      -3.62952031       8.16439558      23.72920314       0.92980247       0.45264422       0.00697544
Cl       0.30910212      10.28696605      18.11182579       1.12133494      -0.08577049       0.99646486
Cl      -2.34122106      10.06785201      11.79152997      -0.00353739      -0.21133814      -0.52971733
Li       6.12257278       9.11164633      20.85241720      -0.50770916      -0.92125820      -0.19017076
Li       2.00933936      13.23468282      15.96656119       0.16883509       0.26236984      -0.12406694
Li       8.82411797       6.83171874      11.51878143      -0.04691744      -0.01845648      -1.06336091
Li       2.75969039       9.88160881      22.85079247      -1.13775971      -0.35569228       0.75941399
Li      10.51428632       5.70775169      17.31253885      -0.26374986       0.28346192      -0.30078095
Li      10.83947267       8.56288045      13.06902196      -0.67199985      -0.57787447       0.94874430
Li       5.91854534       8.23746269      23.60277182       0.75796765       0.36857885      -0.04600296
Li       2.45207157      11.50115113      18.61485086       0.43880903      -0.25891263      -1.06219149
Li       9.22822887       9.96728412      14.52741379       0.06112202       0.16069476       0.04449813
Li       7.70551926       7.03905073      15.74889676       0.38517925      -0.04147538       0.17830847
Li       7.17071397      11.28164849      20.74422636       0.56484694       0.11851471       0.34144851
Li       2.49164449      10.53600627      15.40833165       0.32547376      -0.02904461       0.37583644
Li       9.03704420       8.99932571      22.13773189      -0.46924512       0.07728607       0.25094326
Li       4.06973739       5.28701819      12.85803723       0.04837549       0.05663868      -0.32067253
Li       5.83016889      10.14798763      16.84659841       0.96671269      -0.09048751      -0.03374366
Li       6.92731323       7.46883391      18.51342482       0.54546915       0.56691901      -0.59440382
Li       5.98563319      12.19486429      23.15051395      -0.71928844       1.34237604      -0.11799676
Li      -4.99004288       6.78209829      12.85951507       0.16071772       0.75322354      -0.42458196
P        4.23475838       7.40001256      15.77611533       0.18065906       0.82460133       1.86343896
P        3.73823734      12.24129153      21.21237081       0.34874552      -1.48432045      -0.84582586
P        7.49726865      10.28208123      10.00624577      -0.01987866      -1.40376279      -0.24099658
S        2.55347283       8.10280164      14.90333097      -1.14522022      -0.07670428       0.29876175
S        9.97578332       0.72768996      21.10405108      -1.28073870      -1.59887139      -0.56163470
S        5.39617979      10.09938705       6.38603365      -2.37097120      -0.94769872      -0.60162427
S        5.81918376       8.53961685      15.03398728      -2.90990873       0.99864228      -2.01641719
S       11.70724361       0.25730371      22.27362535       1.71221746       1.28446232      -0.12467433
S       -3.95227881       9.84704274       6.48601628       2.65105472      -0.36964715      -0.40582850
S        4.59928614       5.33723734      15.28511116       0.56913409      -0.82751519      -0.01730915
S        3.60954315      10.33318542      20.46764060      -0.25187181       0.65894201       0.36597927
S        8.69697158       6.78479056       6.94377452       0.40336515      -1.38456254       1.21680295
S        4.11287174       7.67338287      17.76278954       0.11478864      -0.65726647       0.78375444
S        3.68135955      12.26114534      23.16878485      -0.34684408       1.15037959      -1.39281813
S        6.93927131       8.06289069      10.04967414      -1.93679714       0.11294724      -0.68525330
S        7.02990932      10.15047107      22.81213157       0.46501818      -1.21534498      -0.84165923
S        4.30033049       7.12277573      11.69239901      -1.12231426       0.45659572       2.33644120
S        3.71472352      12.04318997      16.84981867       0.01414762       0.41614934       0.13371815
Cl       3.37737120       7.97201270      24.17789857       0.91230461       0.98385916      -0.08275512
Cl       7.17055635      10.04035527      18.80022935       0.27284468       1.14578517      -0.73774841
Cl       4.29619141      11.82003495      12.65134204      -1.93742653       1.74630552      -0.20440978
S        8.92738179      10.42837256       8.55666079       0.30789562       0.08779754       0.60389897
S        1.37221832       0.74179823      11.04289154       0.04270576      -0.65389462       0.25321400
S        1.12479015      12.95419524      10.65512175       0.90952147       2.68624023       1.94640866
S       -1.20036938       0.68520985       8.05481441      -0.64463028      -1.83671852      -1.39936478
S       -9.30444501      10.78186499      10.56674117      -0.79473781      -0.64809730      -0.90092504
S       -6.66830244      12.43540067       8.00268556       0.78372955      -0.94154961       0.44962709
S       12.54659067       5.04502451       7.79582157       1.11578850      -1.29626025       0.10544522
S       -2.01308290      12.70912498       8.39919951       0.63574362       0.03279335      -1.13798338
S        4.60825042      12.85852032       8.91434138      -1.30722679      -1.30646632       0.57039342
S       -4.45462621       3.24687970       9.51917277      -1.23765316       0.74357717       0.20046141
S       -3.15937166       6.31330347       6.97064247       0.81609410      -0.59485700      -0.61323522
Cl      -2.51155144       3.52048216      18.74195083      -1.06212013       1.36361522      -0.16501945
S       -2.26614596      14.01939881      12.29464275       0.10420186       0.04669415      -0.03488024
S       -1.84807178       4.69703185      23.56109114      -0.37619011       1.53088955       0.49036679
S        4.29289721      -1.25086170      16.91208167       0.07676838       2.15968422      -0.02672334
S        3.86987420      -0.65016218      23.00427057       0.35145969       0.79919307      -1.32926389
S       -2.05461012       2.86442847      11.83180768      -1.04631341       0.33865134       0.37427897
S       -0.14075990      -1.03917829      15.11999568      -0.29891220      -0.26864808      -1.39850114
S        5.49561305      13.13847261      20.61467691       0.12020834       0.17561675      -0.11456405
S        7.20466805      13.37491752      15.89877010      -1.01356111      -0.40463707      -2.61159021
S       11.26549194       0.41983164      24.32143962       1.35278657       0.71756891      -0.12111623
S       10.94191409       7.51769110      10.69178580       0.21898698       1.60564899       0.58061659
S       12.45857911       4.79397206      14.80256716       0.58512388       1.85752065       0.53628080
S       12.20016306      -0.43166530      16.93552214      -0.35950248       1.66742738      -0.64310264
S       12.51608299       0.66762244      15.13510407       1.10767879      -0.61493460       0.53103318
S       12.43822506       5.67755161      19.43771013       1.25652413      -0.03742894      -0.93528465
S       13.24293914       3.78942207      19.64676675       0.22051449      -0.20637927      -0.20600601
S        8.87438612      -0.85490025      14.42050883      -0.83420922      -0.59169669       0.00362658
Cl      -6.36695367      10.77462596      18.30624407       0.62845151       1.03389527       0.94980572
S       -5.58693190      14.45543271      14.93852759       0.02485549      -0.58100049       0.62064837
S       -4.39510759      13.48820218      20.87128242      -1.07092439       0.67326647      -0.30234632
S       -6.98821374      11.06104517      22.79111360      -1.12568500      -0.49113601      -0.75247436
S       -1.12124856      12.96188616      20.90673811      -0.56569478      -1.02310169       0.92686966
S        2.12108352      13.21920271      20.40239743      -0.02445189      -1.42949514       1.37789425
S       -6.66093969       7.81727671      11.26876221       0.86964452       0.23603723       0.77710850
S       11.30286695       6.52787581      15.04887452      -0.47419513      -1.72935474      -1.59134213
S        8.96416346       7.66327770      14.15285327       0.08530616       0.77963226      -0.31636759
S       10.40515188      11.05232480      13.05722508       0.60525739       1.85973065       2.37875449
S        7.16709232      11.39462313      15.07320961       0.22552684      -0.87881300      -0.52989069
S       10.96244351      10.30531395      22.61479727       0.04509905       0.18119063       1.09470870
S       10.86852939       8.78987487      24.12687784      -2.04717478       0.09940909       0.75956624
Li      -5.64016535      10.81864983       9.29655748       0.28017085       0.20647401      -0.48949396
Li      -0.84117992      12.15570874       6.08902985       0.72620612      -0.87224727      -0.35563923
Li      -7.44504034      12.47692763      10.39091543      -0.90980256      -0.27167704       1.28478895
Li      12.45492788       1.95296636       9.87834013       0.50475735       0.37895604      -0.50735302
Li       2.88778937      14.14899652       9.77694029       0.58713344       0.26236235       0.73426700
Li       8.23647109      11.48139288      12.52692587       0.28847183      -0.64828318       0.41630282
Li      -3.42739621       1.20974779       8.89533808       0.63104228       0.19807180       0.61547431
Li      -3.85382898       4.15232566       7.18683867      -0.27146042       0.47284515       0.94481023
Li       1.20165037      -0.20382102       8.80775034       0.02787365      -0.24995782      -0.08730043
Li      -8.92559125      11.64807772       8.36564944      -0.50750480       0.30166145      -0.35510348
Li       9.53101019      -0.94144539      10.36172956       0.47561486       0.00368520      -0.21280326
Li     -11.52847052      10.26927621      10.83012516       0.58649487       0.20600510      -0.28760879
Li      -8.68669671       8.64291805       9.74013939      -0.84183991       0.64293038      -0.05594504
Li      11.64615523       5.35534025       9.92042753       0.12555631       0.15412339       0.06908596
Li      -3.62455611       4.57194439      12.77698859      -0.49036681      -0.17637390       0.53266858
P       -2.29354217       3.46120863       9.84750085       1.77415927       1.69357531      -0.57117410
Li      -4.93750437       5.93484733       9.78719092       0.37992375       0.42985550       0.03421632
P       -6.10297249       8.07595107       9.24911171       1.39529082       1.03746022      -0.84536473
