279
Properties=species:S:1:pos:R:3:momenta:R:3 LayerForceGeomOptConstraint=T E_ref=-1048.456954697952 step=700 pbc="F F F"
Li       4.07961917      14.65023762      21.93302810       0.48486416      -0.31926512      -0.13892264
Li       7.55561211      11.53683381       7.16617879      -0.01106179       0.19174449      -0.00709116
Li       3.08349930       1.39794378      12.36981553      -0.17879005       0.02142986       0.18930040
Li       3.59376432       6.04432891      22.51051628       0.14280744      -0.21317861      -0.17247781
Li       0.28632114       4.97146519       7.66114783      -0.10916731       0.45115484       0.37896896
Li       5.87025649       2.61238022      10.45914267       0.05366772       0.61850999      -0.12948001
Li      11.17326213       1.51283735       7.27618985       0.39411954       0.51399629      -0.28897499
Li       2.78954843       5.98764800      10.50142685      -0.40025919      -0.35912335      -0.14765158
Li      -1.65814331       0.77754746       5.94484420       0.38214302       0.58124088       0.47816788
Li       5.84822196      -0.29987454       8.63581356       0.87003754       0.38853253       0.41581979
Li       3.73669958      12.51517058      11.14818055      -0.36363347       0.26029397      -0.28254038
Li       0.79613689       5.25545996       4.75156777      -0.09701758       1.15529508       0.23181598
Li       4.07718398       0.46187424       5.40888587      -0.07903041       0.22554549       0.93503555
Li       3.50484606       1.32411932       9.79824202       0.71738496       0.66835827       1.24515442
Li      -2.77036755      10.72833120       5.48428512      -1.10871070      -0.32499239       0.45291693
Li       1.04524994       1.36496037       6.90225461       0.53680595      -0.07429023       0.07961373
Li      -5.55935985      12.73570509      22.79997359      -0.16101941      -0.17509944      -0.23648695
Li      -0.64724961      13.75067838       9.88286659      -0.38440500       0.89441754       1.36258911
Li       6.65748522       0.06804708      12.48255263      -0.10223189      -0.86954420       0.28676475
Li      13.05101995       4.45090780      22.14343634      -0.45238768      -0.10943562      -0.06876284
Li       8.41450459       3.67263100       9.90648059      -0.17051587       0.43893945       0.23235166
Li      -1.39325745       2.74745229       7.82478694      -0.25028717       0.15580747      -0.60427959
Li      -6.14546672      11.39999301       5.99540144      -1.21055223       0.36916885      -0.37178635
Li      10.92133438       5.44809264       7.01359788       0.41282012       0.06709973       0.89156582
Li       5.90466899       2.45149419       6.96560180      -0.45445146       0.08137663       0.51805852
Li      11.51380596      -1.65236772       7.51248217       0.25383064      -0.72584542      -0.00450628
Li      -7.25216166      10.11953940      11.14281653       1.13755840       0.25663237      -0.56233389
Li       4.44763929       4.23215595       8.08894032       0.01555090       0.22748658       0.07010043
Li      14.27436315       2.72348920       7.23831151       0.03357762       0.28319812      -0.29137932
Li      10.45932585       1.52659873      10.14766693      -0.36734570       0.80253278       0.41467106
Li      -2.27794243      10.75949094       8.35248686       0.28349669      -0.14679455       0.79677198
Li       8.15147217       4.89515317       6.54228221       0.27404029      -0.04742962      -0.65367313
Li      10.25606473       5.94884698      22.48155334       0.15450991       0.54152219       0.55736901
Li      10.19836555       8.61777621      10.23237547      -0.22850610      -0.02012649       0.07164263
Li      -4.68923701       9.30696276      11.45715104       0.44589172       0.05594396      -0.15774805
Li      -1.73780857       8.64499084      22.46558356       0.05906307       0.40520696       0.63582992
Li      -0.26246307      11.18857808      11.04639002       0.77934460      -0.02821078       0.06542931
Li       3.53282849       8.01363449       9.04107808      -0.15543496       0.97513591       0.30459047
Li       2.15196818       7.39409729       6.54312800      -0.36527771       0.65230887       0.05036037
Li       0.44943458       9.82346169       6.84827515       0.03559886      -0.43134869       0.02459186
Li      -4.20149925      12.52030736       7.51226082       0.59657867       0.43672849      -0.10756199
Li      -1.11541380       6.95947889       3.47550861       0.36460940       0.14598471       0.33928287
Li       5.54427972       5.70633262      10.01096524       0.42250894       0.17903588       0.40272535
Li      -3.34116982      12.24335811      11.66280291      -0.23929463       0.23129975      -0.33002430
Li       2.14845287      11.40351004       8.73688521      -0.09071914      -0.68303822      -0.06162251
Li      -1.32650017       8.54926009      10.67475841      -0.03681328      -0.30364167       0.25963891
Li      -2.14807132       4.63701169       5.46012997       0.00961559       0.23831454       0.04096847
Li      -0.14234615      12.59862300       5.93290259       0.50952539       0.17782682       0.68863825
Li       0.99509789       7.51652670      24.30566333      -0.53903560       0.22256587       0.12355901
Li       1.63705519       3.15460603       9.77208508       0.61380119      -0.13435397      -0.63724841
Li       4.18619560       9.47920710      12.99664419      -0.34757444      -0.17614718      -0.40843228
Li       9.07716309      10.58111920      23.48173401      -0.10981955       0.36553902      -0.30734380
Li       5.11355535      10.55515644       8.53643534      -0.25174407      -0.11093190       0.59532275
Li      -4.38671662       8.01280707       7.66728959       0.23352184       0.16715030       0.12236534
Li      -1.53894968       7.62341359       6.53429778      -0.50578900       0.05886307      -0.33416310
Li       3.84829501      10.23613025       4.93652331       0.70413667       0.17962022      -0.11177554
Li       1.01172074       9.70306980       4.28001501       0.46409727       0.38961936       0.04463421
Li       8.33349992       6.24178589       8.55803806       0.03187681      -0.47020579       0.72934105
Li      -2.39966515       6.73771152       9.13989680       0.18284337       0.35904206       0.15359624
Li       4.17029631      12.35441822       6.70578273       0.22853242      -0.89690304      -0.46222190
Li       7.13698501       8.38184400       6.40113278      -0.72506254      -0.23222305       0.69469651
Li       6.71070583       7.92712281      12.23265659       0.28622831       0.52104409       0.40430881
Li       2.28028030       3.43241504       6.48733875      -0.21080973      -0.65868171       1.13242878
Li      10.19057252       8.76023771       7.12643522       0.03014453      -0.49346223      -0.47330231
Li       2.90665841       2.56824585      20.71954789      -0.39778981       0.48324950       0.20653793
Li      -3.45829157       5.17893481      17.44798253      -0.08948314      -1.25051132       0.43432166
Li      -3.02532259      14.71652724       9.31808690      -0.66537332       0.61935519      -0.38169614
Li      -0.70907160       2.89412514      22.64647536       0.03958793       0.04446211      -0.66324078
Li       5.48949782      -0.20369745      18.42260149       0.30965390      -0.53745860      -0.56896636
Li       1.03310284      -0.47655026      13.07400102       0.13883098      -0.44511417       0.04827719
Li       2.10549640       0.99407127      23.41753643      -0.23913808      -0.45947559      -0.06507423
Li      -1.34450796       2.98355848      17.42857397      -1.08726355      -0.57721119       0.18778704
Li       2.96587836       3.55843747      14.06402081       0.01974323       0.44701426       1.17675364
Li       4.06314286      -0.20891533      15.51533463      -0.23078686       0.26986938      -0.03378475
Li       4.95705166       4.08787701      20.56342333       0.93984263       0.87340124       0.53132315
Li      -1.09105296       1.22955043      10.37172902       0.57349339      -0.91614002       0.78489873
Li       4.86121790       1.36531585      22.70145792       0.60889631       0.01785363       0.31071983
Li      -4.18857379      14.23037137      12.95260640       0.69091002      -0.07492416       0.05691971
Li       1.17756041       3.81723281      17.73176390      -0.25529307      -0.06100540      -0.43738825
Li       2.55058456      -0.25984782      18.20448633      -0.27795468       1.11930560       0.58538668
Li       1.70057980       3.80705580      23.66358373       0.24307044      -0.01887522       0.41274131
Li       9.12099126       0.91103499      12.80711464       0.36197220      -0.24869180       0.62554568
P        0.65212424       0.87678328      15.59505941      -0.00698765       0.77815463      -0.12827430
P        0.07554768       5.50691189      21.21527596       0.13565337      -0.89674896       0.16669848
P        3.76260365       3.68433006      10.74850766       0.36669846       0.57059328       0.41281105
S       -0.54934472       2.43012990      14.90299717       0.40494515      -0.79575404      -1.48163809
S       -1.44236630       6.49717362      20.44328207       0.82561772      -0.69870222      -1.03687155
S        2.58099616       5.53469248       8.16666415      -0.62809174       1.96560398       0.27189485
S        2.51069949       1.22444752      14.60089320      -0.84200262       0.27069066       1.15553203
S        1.76696657       6.68248187      21.05874951      -0.04276308       0.39726844      -1.70313226
S        6.72500577       4.34291346       8.28759556       0.09220024      -0.30200915       0.62158913
S       -5.45569986      12.71126309      16.13426991       0.79607965       1.62413046       0.34860207
S        0.29695783       3.52667248      20.66711993      -0.60794406       0.22913517      -1.09544398
S        3.69946877       1.75690381       7.24384344       0.52070446      -0.40821865      -0.59444288
S        0.53182084       1.17467868      17.64322753       0.62033102      -0.16975219       1.00138638
S       -0.21187625       5.50768478      23.44253803      -1.12452387       0.16407204       0.07397134
S        4.87525626       2.87009520      12.51965139       0.26060080      -0.57090480       0.09725528
S        3.78962000       3.52921741      22.84764175      -0.22616232      -0.04242731      -1.21960862
S       -5.56542011      11.69810173      11.64161845      -2.60810599       0.29309691      -0.05633176
S        0.43183572       5.82187856      17.26633753      -0.98432623      -0.62182645      -0.59411188
Cl       0.50882998       2.04670261      24.38679768      -0.75019581      -1.22723503      -0.08779748
Cl       3.44629313       3.66529212      18.64534394      -0.44067827       2.06098335       0.02510100
Cl       0.91971285       5.47749027      12.59619423       0.72127102      -0.88042728       0.52113775
Li       9.34445732       1.44133782      22.71003931      -0.36826975      -0.72996698      -0.31605429
Li       5.49251617       5.68817140      16.96311154       0.63212916       0.34505358      -0.54106790
Li       9.07931672      12.84955713      14.43713714      -0.24204830       0.24455820      -0.06937134
Li       5.79682883       3.81095067      23.86072122      -0.20538028      -0.91067809       0.48607347
Li       5.59159820      12.97363424      18.11040834      -0.27011676       0.55633430      -0.27804136
Li      10.60602890       3.68161734      13.04966979       0.26840848      -0.16098000       0.30555353
Li      11.99246396       1.70663044      23.67289767       0.11687788      -0.54128888      -0.40305019
Li       8.14778063       3.45481423      18.24731544      -0.68234779       0.15578002       0.08633445
Li      12.29870495       6.61570215      13.53918670       0.53751159      -0.31496716      -0.63891147
Li      10.90368809      -0.29473020      14.89230668       0.55679982       0.20677970       0.12795417
Li      10.27932331       4.39415279      20.55312578      -0.59999147       0.27287052      -0.73379721
Li       7.11084092       3.56744335      13.75917478      -0.46042889      -0.38851549       0.28467849
Li      11.79115660       2.07654800      20.47096266       0.07002132       0.04966253       0.10427973
Li       1.61461084      11.74142534      12.84343545      -0.58007438      -0.34629947       0.09408435
Li      11.54422262       3.05625334      16.33791194      -0.25212413      -0.77861242      -0.23146234
Li      10.22524459       0.65529177      18.32354689      -0.37464841       0.25127574       0.23638958
Li       9.03358242       3.96202674      24.11936180       1.13999593       0.23670773       0.34569167
Li       0.52553704       2.95496254      12.39456274       1.22760632       0.65170868       0.60164123
P        8.03824446       0.74237226      15.33206941       1.16102596       0.81056872      -0.49129704
P        7.46877624       5.61154382      21.47591106       0.76218252       0.40206397       0.51556823
P       12.22632197       3.05015645       9.01277704      -0.43557454      -0.33107155       0.12946340
S        6.18924828       0.98610153      14.48630190      -0.61733241       0.46682540       1.19880008
S        5.66729091       6.50375524      20.67002184      -0.28936868      -0.56821404       1.08901699
S       10.24239338       3.74736433       8.42602020       0.43880531      -1.31197145      -1.97782030
S        9.12512691       2.35802426      14.70341680       1.95562309       0.58204460       1.37141508
S        8.98659213       6.62254220      20.59782205      -1.21493917       1.27132854       0.05595381
S        0.02811322       3.20285678       5.89423697       1.30060292      -0.96328779      -0.10288766
S        0.39164494      12.60793099      14.85845233       0.38935903       1.57139914      -0.88302155
S        7.60297621       3.67775240      20.88363794       0.68092288      -2.80839645      -1.69620025
S       11.36251003      -0.41407290       9.19863788       0.12928133      -1.38372128       1.32487988
S        7.76783795       0.86532091      17.33697931       2.04169426      -0.26117742      -1.77387467
S        7.75650073       5.92392556      23.51121953       0.16004226      -1.04872668      -1.85644915
S       12.19955598       3.08086076      11.14117485      -0.49078457      -0.96691361       2.21552557
S       10.84523911       3.49941419      22.72982436       0.08848193       0.48806460      -0.59889281
S        7.92385248       0.86319206      10.71801657      -1.61968717       2.09917202       0.74261754
S        7.64445950       5.55511513      17.33307377      -0.31139246       1.24493320      -0.80930071
Cl       7.47639825       2.19008654      24.05770698      -0.43518593      -0.29869717      -1.08432440
Cl      10.65686300       3.12038712      18.45162119       0.57990554      -0.53111353      -0.13237616
Cl       8.24809563       4.78302248      12.15127718      -0.70198468       1.96391004      -1.23984766
Li      -1.77159204      10.83377933      19.06966535       0.53367881       0.14501962      -0.54971458
Li      -5.62661854      10.69894597      20.52514052       0.05215335       0.34160892      -0.16463154
Li       2.08570226       7.53010893      12.59321297       0.49703823       0.13655664      -0.53203921
Li      -4.92746483       9.65206644      23.35063484      -0.26424761      -0.37897188       0.40981191
Li       2.47869129       6.01624900      18.16774399       0.45267286       0.92933672       0.16515726
Li      -2.46945493       8.22373915      13.15908175      -0.40125574       0.16400436       0.76900607
Li      -2.96433922       6.06508782      22.11147999       0.14644891      -0.75463212       0.35242309
Li      -4.89706463       9.95298862      17.15176981      -0.81423916       0.38514635      -0.63775108
Li      -0.40243704      13.56152311      12.79337135       0.28233983      -1.10735340      -0.30224014
Li      -0.56243567       5.84623843      15.00966718       0.00580375      -0.39073909       0.16709971
Li       1.06229528      11.78052738      22.03131894       0.36475179       0.81364876      -0.19663021
Li      -6.09941354      11.66001780      13.93687907      -0.09423588      -0.38069713       0.52510176
Li       1.04552356       8.86968684      20.48658166      -0.87896544      -0.15256816      -0.39606246
Li      -1.09762985       5.32506698      11.63390242      -0.13887324      -0.51636043       0.57987649
Li      -1.44095259      11.03179073      15.15068681      -0.39427804       0.04640753      -0.02059298
Li      -0.80373469       7.62402739      18.09419079      -0.43199504       0.26979135      -0.64168505
Li      -1.06200174      11.25633417      23.68939110      -0.14602366      -0.01020496      -0.17397130
Li       4.98985191      11.80341063      15.31205698       0.21591734       0.05151350      -0.06763279
P       -3.22510266       7.81685796      15.56436288      -0.55023764      -1.20429533      -0.75862196
P       -2.96840325      12.03715786      21.70432890      -0.90872902      -0.20684676      -1.92733949
P        1.27360182       9.07863311       9.45937150       1.96457084       0.00358738       0.06726658
S       -4.84579123       8.72204537      14.81846397       1.37421932      -0.92216788      -0.35957956
S        3.39712992      -0.68096114      21.76226084       0.01362990       2.22640062      -0.33227649
S       -0.75398890       8.53811945       8.45058414      -0.91768738      -0.60975181      -0.88894333
S       -1.18246635       8.54900711      15.03891377       1.39981491       0.07061895      -0.55984807
S        4.40052508       0.67947541      20.52775844       0.56185095       2.47994126      -0.24557248
S        1.85313386      11.21713033       5.85055319      -2.00090197      -2.13248553       0.68851525
S       -3.17021386       5.80876797      14.97997779      -0.82534687      -0.45557880      -0.19042987
S       -3.10501019      10.24757671      20.73387594      -0.69568325      -0.42139407       0.80966570
S        0.35512620       7.58966318       4.95768187       2.60303176      -0.15160728       0.02693453
S       -3.22559105       7.78093635      17.61472183      -1.16708753      -0.03400631      -0.47636784
S       -3.25296713      11.81290416      23.81667818      -0.02222943      -1.36139568      -0.14617854
S        0.86245301       9.34381375      11.53541682       1.79221333      -1.70047332      -0.88134188
S        0.31781923       9.49726192      22.81015071       1.32557857       0.98681587       0.91780853
S       -3.06242121       7.01172023      11.48277137       0.82686579      -0.10679930      -0.18546754
S       -3.59068091      11.85743056      16.33288308      -1.67464648       0.74584287      -0.79259053
Cl      -3.77018022       7.86014031      23.11397969      -0.49863258      -0.97462884       0.02728556
Cl       0.43629960       9.70873820      18.48523590      -0.75359746      -0.38785955      -0.89038514
Cl      -2.31455153      10.24320227      11.67559032      -0.67911438       0.78676738      -0.45023035
Li       5.79871950       9.16431423      20.87372486       0.23081735       0.56207470       0.15036861
Li       2.04785893      13.36393952      16.31846104       0.18352270      -0.27115771      -0.74054406
Li       9.85586716       6.71610134      12.30170171      -0.28652038       0.17784316       0.46106008
Li       2.72489946       9.71488144      23.15204981       0.88295149       0.42744362       0.48880210
Li      10.16255870       5.80338271      17.92801403      -0.95941585      -0.42250004      -0.72640887
Li      11.30745098       9.36396959      12.94485956      -0.89352647      -0.51018078       0.22298867
Li       5.95248540       7.87769590      23.79247458       0.30839883      -0.36711455       0.28446464
Li       2.76635595      10.08152714      18.15922592      -0.08226372       0.16208333       0.31150911
Li       9.05336244      10.16729992      14.60447438       0.04378792      -0.23490160       0.12672065
Li       8.94412622       5.69959415      15.36084612      -0.24779922       0.35614579      -0.02350582
Li       7.52617573      11.21964551      21.09068357       0.37241431       0.08859105      -0.64017856
Li       1.97948282      10.95846415      15.53324158       0.78958024      -0.38464398      -0.48375508
Li       8.83429790       8.95947013      21.20400045      -0.05256416       0.26645850       0.73482752
Li       4.67650320       5.43038266      12.42479890       0.29983747      -0.27883589      -0.11732063
Li       6.28647007      10.10019378      17.37373022       0.20822304       0.16558620       0.40105134
Li       7.50621982       7.37566198      18.58172593      -0.45154481      -0.05094902      -0.43375618
Li       5.65472164      11.50382993      23.42197644       0.11937242      -0.24661943       0.06843363
Li      -4.95832757       7.11591529      13.20622840       0.14726801       0.08933071       0.00924307
P        4.27387248       7.74505389      15.28327424       0.60654137      -0.36658294       0.36251232
P        3.60337549      11.91250682      21.15932268       1.44509455      -1.45356863      -0.69233110
P        7.68125120       9.69489372       9.78808326       2.60668660      -0.40789064       1.91811403
S        2.51614976       8.66785229      14.63847875      -0.01605532       1.16183939       0.33451351
S        9.71944947       0.68526982      20.62637679       1.89645541       1.36036973       1.41856902
S        5.77685658      10.12778444       6.36464584      -1.56081723       1.01123463      -1.57688745
S        5.90656083       8.69857574      14.64013298       0.64473680      -1.52479006      -0.45643428
S       11.34277871      -0.19642699      21.68259992      -0.58438642       0.58605760      -0.67370282
S       -4.22215347      10.16750744       7.02405011       0.77006080      -0.15353932      -0.57711798
S        4.48718015       5.62971342      14.81070043       1.80176281       0.50267899       0.12760148
S        3.55938648       9.93200949      20.57890380      -1.40751609      -1.19182751      -0.74910569
S        9.08795152       6.97037283       6.54517320       1.19885540      -1.00799624       1.39661222
S        4.30034557       7.70956764      17.26515114       0.21763848      -0.87583071       1.10721211
S        3.37665280      11.95437610      23.34183750      -1.02878564       0.95693369      -0.21382911
S        8.12696956       7.67438314      10.52191157       0.50069479      -0.18545908      -1.54515222
S        6.96687894       9.82564037      22.88646537       0.28515849      -1.01961706       0.08071616
S        4.28829298       7.49839912      11.29833870      -0.13191645      -1.07008121       0.29824411
S        3.71746154      11.84210662      17.12119833       0.91444439       0.34462432       1.34696508
Cl       3.54753030       7.66905016      24.06938602       0.20559210      -1.97210952      -0.02698487
Cl       7.38074046       9.76270654      19.17774838       0.63437043      -1.14771688      -1.72827384
Cl       3.91894531      11.60390505      13.23022291       1.64860959       0.51445948       0.81267480
S        9.40263526      10.51622426       8.61848928      -0.86952461       0.37764789       0.86386086
S        1.26996340       1.03449743      10.71872350       0.22836470      -0.09111548       1.83938628
S        1.30416075      12.89458008      10.88632119       0.27833008       0.92352169      -1.21251594
S       -1.71887638       0.38938494       8.16934157       0.25921764      -1.01991554      -0.91295103
S       -9.11575307      11.10952860       9.94319716      -1.82607284      -0.55862549      -0.25577065
S       -6.44529925      13.02856308       7.74719090      -0.06198170      -0.72120258       0.41777541
S       13.26969284       4.75530758       8.49680327      -0.52211642       1.68508225       0.98415757
S       -1.74780855      12.93691390       7.56829969      -1.34192669      -1.21795957       2.19598044
S        4.40239133      12.74934118       8.90085116      -0.28094440      -0.99865037       0.77845539
S       -4.61582106       3.59126594      10.47804992      -0.87915762       0.88082472      -1.47188057
S       -3.23724557       5.98716882       7.09258048      -0.66143292       2.02283734       1.01866038
Cl      -3.18985558       3.37916471      18.38109939      -0.51209425      -1.86418383       2.61224875
S       -2.26427943      14.35206499      11.54891985      -0.21933554       1.75524870      -2.85491077
S       -2.15894542       4.59101109      23.65221789       0.21042644      -0.80263608       0.20033343
S        4.00702830      -1.54135879      17.29800429      -0.69074869      -0.00648758       0.72826871
S        3.94339923      -0.59913594      23.74376477      -0.11289202       0.28272922      -0.36794193
S       -1.70761478       2.86690941      11.86990866      -1.69308512       0.10754448       1.30960061
S        0.26332256      -0.99915210      15.15089454      -2.10170024      -0.44416690       0.85668919
S        5.57636932      13.00406192      21.03116470       1.39220616       0.91623638      -0.20568319
S        7.97934900      12.99142680      16.83991417      -0.01657442       0.44070384       1.25774937
S       10.79499685      -0.55313107      23.58193703       1.09492149      -0.44500414       1.44063184
S       11.68594487       7.35575788      11.33209153      -1.21338163       0.48203818      -0.73938740
S       11.45428558       4.71354209      14.83685925       0.38683787      -0.32022127       0.71327021
S       11.69186633      -0.68679694      16.97926685      -0.55148384       0.85229314       3.22928490
S       12.56922637       1.03118926      15.95643367      -0.88342509      -0.39467591      -1.76361810
S       12.36174142       5.98181898      20.23672219      -0.51426733       0.60821897      -0.79964888
S       13.47149938       4.12916099      19.91020390      -2.53552602      -0.10519454      -1.65536215
S        8.75220924      -0.90330785      14.33045869      -0.47142886      -0.24786071      -1.88125390
Cl      -6.27632582       9.31100814      18.62273707      -0.88937576      -0.34405935      -1.76310653
S       -5.73024024      13.94222358      14.55139595      -1.29741374       0.97008087      -0.63679793
S       -4.28692260      13.33398285      20.95255334      -1.22179300       0.22059899       0.55747318
S       -6.90662143      10.83355040      22.79097052       0.54639056       0.33905631      -0.81326533
S       -1.05439459      12.69393400      21.39376125       0.49101230      -0.77395867       0.83590189
S        2.23788837      13.19298002      20.37902689       0.23210826      -0.28474022      -0.35668111
S       -6.64383494       7.55407844      11.36328347      -0.06435472       0.54859534      -1.29790682
S       11.08532261       7.10238090      15.70450756      -0.99565799       0.47804631      -0.39810177
S        9.63949768       7.87343815      14.40341337       1.09290473       0.26517193       0.29468305
S        9.91211682      11.34381476      12.86105989       0.65448629      -1.32748643      -1.23636117
S        7.29553508      11.23849544      15.72192824      -0.73517752       0.26368467       0.86337393
S        9.81840137      11.59227656      21.39186296       1.36079086       0.16243047      -0.09776612
S       10.78960503       9.87956280      22.23996525      -0.59147685       0.17950295       0.90345941
Li      -5.69993533      10.90210165       8.88093558      -0.00381183      -0.37614274       0.11157606
Li      -2.19117190      14.68199868       6.37086321      -0.09548588      -0.69309333       0.05596296
Li      -7.10642355      12.73614934      10.32517869      -0.21239319       0.72274737       0.88799823
Li      13.19648771       0.93703778      10.34481925      -0.56179346       0.01335203      -0.37016102
Li       2.55403458      14.62865157       9.13713315      -0.15492680       0.08496990       0.08305101
Li       8.92423867      11.68069526      10.83696398      -0.42504599       0.13316449       0.01963453
Li      -3.61587936       1.37118444       9.61777577       0.04865160      -0.03023960      -0.03137581
Li      -4.98824786       4.52063956       8.23203989       0.02225161      -0.64604694      -0.24288910
Li       0.29568669      -0.55141670       8.75386572       0.13276024      -1.01246204      -0.58238796
Li      -8.57481916      12.38785185       8.19991106      -0.21134258      -0.15819597      -0.02472405
Li       9.16314335      -0.92785612       9.67067810       0.80887713      -0.52201558       0.47781269
Li     -10.20162599      11.54841594      11.85668189      -0.16044664      -0.11090964       0.81282529
Li      -8.86060169       8.69622330       9.72342750       0.50752534      -0.01241562      -0.48721235
Li      12.80019713       5.53612258      10.69226594       0.01839766      -0.12948782      -0.61018108
Li      -3.71273267       4.65047929      12.56140211       0.81638411      -0.06860818      -0.54459532
P       -2.51737546       3.81544789      10.06869691       0.45523374       0.62557758       0.01709943
Li      -4.99261409       6.34830998      10.43646791      -0.19446402       0.36289923      -1.07117329
P       -6.21618606       8.28993062       9.44697667      -0.36757751       2.00841630       0.08620519
