279
Properties=species:S:1:pos:R:3:momenta:R:3 LayerForceGeomOptConstraint=T E_ref=-993.3907092982505 step=200 pbc="F F F"
Li       2.15623266      14.86054710      21.92996912      -0.24675669       2.19614553       0.08357700
Li       9.25019625      10.95887357       6.58878954      -0.00723496      -0.52997451       0.50252540
Li       3.43703915       0.81915491      10.09060701      -1.06510126       0.28604238       0.89771234
Li       3.76800422       5.70518271      23.29403374       0.02471718      -0.79753952      -1.30621467
Li       0.34499223       5.04791699       6.88996725      -0.47450756      -0.30560102       0.91824398
Li       5.96316300       1.75472551       8.53369248       0.66633589       0.10034665       1.51137635
Li       8.67366712       0.59283154       5.87941061       0.72507142       0.10252447       0.67463903
Li       0.66769803       2.37577385       9.62279233       0.74658449       2.02907694       0.51990743
Li       0.07567328       0.93276407       5.40241793      -0.72092834      -0.24476424      -1.02246918
Li       4.91766139      -1.76119253       6.90182707      -0.78898872       0.99949854       0.54291883
Li       3.08563863      12.49298142      10.17490866       0.00399002       0.24269313       0.38981113
Li      -0.55098459       5.09776432       4.29782689       0.02021661      -0.95599825       0.66031629
Li       4.36799289       0.91331636       4.60993797      -0.13996077      -0.72558301       0.62882931
Li       1.79545136      -1.00254134       7.33474320      -0.12315068       0.12866893       1.55617313
Li      -3.48195396       9.42206057       2.44771810       0.05411512       0.02271281       0.21000934
Li       1.76048355       3.24884149       4.97023180      -0.92045858      -0.57332165      -0.26243370
Li      -6.46102337      12.42260987      23.75203352      -1.38181637      -2.80247266      -0.55024034
Li       0.03445936      13.96398020       8.71972612      -0.14891736       1.49600881       0.85341289
Li       7.20123205      -0.64246619      10.18546517       0.81287352       0.55437679       0.14082881
Li      12.85494221       4.03617473      23.29840753       1.40371930       0.71690139       1.05539794
Li       8.45734716       3.64255514       9.28684289      -0.03147225       0.45340800       0.25609049
Li      -1.97618197       1.32535835       7.66024564      -0.30517490       0.44157254      -1.05150431
Li      -8.18910295      13.03373910       5.60874747       0.31673862      -0.60254265       1.88048242
Li      10.09127601       3.42055261       4.23424241      -0.24535787       0.26642387       1.31759216
Li       6.79316173       3.21959871       4.94578348      -0.02850184      -0.58259877      -1.44352881
Li      12.24944028      -0.64665001       5.57355410       1.06558320      -0.20968850       0.86406729
Li      -7.46292739      10.51479022      11.26952532       0.80454922       1.36721989      -1.46918439
Li       4.31714004       5.09524804       5.91701896       0.36557372      -0.27128655      -0.16565377
Li      12.59019819       2.78963592       6.64132412       0.36044862       0.71988684      -0.70818723
Li      10.83620008       1.23150850       9.22522565      -0.18194848      -0.39091398      -1.01696645
Li       0.05300104      13.07983873       6.01890594      -0.85636723      -0.59821928       1.29473232
Li       7.31549382       6.53457512       4.07077750      -0.66986483       0.21436874       1.33243425
Li       8.87076029       5.98592359      26.08621952       1.28351821      -0.26411487      -0.45531603
Li      11.32236047       6.75566487       8.88170305       0.43847018       0.78789543       1.60091931
Li      -2.92465497       9.41213445       9.90525720       0.01723541      -0.66224182       0.08933402
Li      -0.99938144       9.53123597      25.30608937       1.59418563      -0.23264957       0.51214394
Li      -2.32458020      12.24144683      10.14338969       0.25258716       1.06752549       0.62518746
Li       2.75551034       8.33052307       8.75256472      -0.13060280       0.58328646       0.07266754
Li       2.93609142       5.91393713       3.14626582      -0.71838177       0.57763522      -0.08678431
Li      -0.04693275       8.98323532       6.28853487      -1.98417694       1.03769857       1.01045343
Li      -2.75744323      11.66812712       6.66302137      -0.61131369       1.64516700       0.07790144
Li      -1.18766198       8.61551614       3.51207453       0.27738969       0.10691158      -0.41863163
Li       4.94696339       5.22150504       9.55980724       0.83970447       0.11262728       0.09611046
Li      -4.35767107      12.61776445       8.38990819      -0.14122963      -0.86844277       1.09372910
Li       1.16276824      10.97551402       8.00001837       0.65367331       0.07498636       0.27956237
Li      -0.68989838       7.56238950       8.72118586      -0.09086234      -1.68862640      -1.06231082
Li      -2.98463119       3.94472615       6.02177257      -0.42324241       0.40024776       0.39831669
Li       0.20015168      11.05173005       3.00048020       0.06230694      -0.16503903       0.50117900
Li       1.41958896       7.53991508      24.06391590      -1.03050420       0.45273906       0.86167178
Li       3.00353017       2.15147469       7.45411338       0.03086756      -1.08722224      -0.35505027
Li       5.17388862       9.87123372      10.29791822       0.06983459       0.46560860       1.13205736
Li       9.34253893      10.53837231      23.44334432       0.25502563       1.49038220      -1.06915720
Li       5.91234910      11.90728343       7.75674596       0.18406020       0.85449716      -0.67998595
Li      -4.67230947       8.16898423       7.15383004       0.20923923      -0.75560689       0.31050509
Li      -2.33872930       7.16494571       5.58470138       0.82959087       0.31481147       0.00406117
Li       4.98232707       9.56703844       6.18765014      -0.17863366       0.23904025      -0.51568024
Li       2.38536661       9.07178188       5.53411022      -0.44518733      -0.10427954       1.58932040
Li       8.83980774       5.15026924       7.10104499      -0.41423356       0.48335110      -0.10794492
Li      -3.13470569       5.10727397       8.87746404       0.63494061       0.43948050       0.54792161
Li       3.38459621      13.27362369       7.58204970       0.47282198       0.86092211      -0.57973462
Li       7.23678272       8.05182887       6.29466928      -0.26880906      -0.63254700      -0.30804696
Li       6.69505761       7.61116098       9.19451804      -0.21991388       0.51012132       0.27325559
Li       5.04453194       3.59532154       2.57863275       0.65574146       0.17801450      -0.03650695
Li       7.02628385      10.35956823       4.40663563       0.19630836      -1.10583144       0.59700006
Li       2.69768796       2.03117154      21.06680914       0.53173827      -0.73261080      -0.26798118
Li      -2.66267327       5.53219911      17.82953100       0.27095422      -0.35399023      -0.52119648
Li      -2.47008649      15.68673233       9.95934899       0.81457363      -0.34783658       0.69545622
Li      -1.53532356       2.80960841      22.92633679       0.57274812       0.23904006      -0.37539395
Li       6.03437122       0.40152485      17.86235407      -0.14386630      -1.65062576      -0.24640401
Li       1.48058570       0.30760895      12.80205819       0.61408839      -0.31383061       0.24349412
Li       2.76417817       1.31980178      23.76805342       0.36316066      -0.07410298      -0.47442471
Li      -1.51541315       2.85926272      17.86695954      -0.22987816       0.09049609       0.40622322
Li       3.13676911       4.27307755      13.00645498       0.20103173      -0.08347999       0.81590098
Li       5.70696613      -0.43780205      14.76294318       0.09336487       0.13932206      -0.13504496
Li       4.42941104       4.35785179      20.98037828       0.15736305      -0.45186657      -0.46763890
Li      -1.38326428       0.58105874      10.35941528       0.59525272       0.36148830      -0.33134101
Li       5.54864663       1.42850771      22.58963599      -0.18135282      -0.43380048      -0.62731845
Li      -5.74160348      14.67495085      11.18059917      -0.01508938       1.28448583       0.50027586
Li       1.21530735       4.00594986      16.00130923       0.10188572       0.39149180      -0.12779474
Li       2.81647182      -0.26355060      18.04403368      -0.60433467      -0.68067599       0.31867426
Li       1.20657499       3.40748598      23.48709751       0.73056200       0.01535795       0.11557158
Li       7.41657602       0.98343710      13.16522061       0.13786159       0.17041332       0.21130156
P        0.72174219       1.25059673      15.53453372      -1.50451722       1.78908169      -1.72267122
P        0.12635868       5.46308810      22.07383350      -1.06671740      -1.42219918       2.62811179
P        4.13265472       2.98311159      10.14981274       0.29178698      -2.03576356       0.06141166
S       -0.91695721       2.42780521      15.40595743      -0.00400840      -0.46545750      -0.26377454
S       -1.56344454       6.48928257      21.20421888       0.71516546      -0.79510101      -1.46927619
S        2.40098834       3.97570390       9.10658639       0.89535361       1.09656607      -0.44457709
S        2.01980906       2.35503643      14.16130174       0.15059802      -0.07847483      -2.46987230
S        1.92882390       6.33169426      21.65620441       0.92419946      -0.59486124       1.33923281
S        6.39310397       3.93861231       7.22548884      -1.88572849      -2.03322892       2.11194807
S       -6.08475140      12.24761237      16.02474792      -0.41075539       2.32585951      -2.47687837
S        0.16656144       3.44204770      21.47435335      -1.25064487      -0.11203637      -0.52756875
S        4.30085500       0.52675071       6.81571758       1.81939975       1.89267530      -1.80956942
S        1.32622937       1.62503209      17.46532650      -1.34482699      -1.63528784       0.34944227
S       -0.14854991       5.47348123      24.13073518      -0.55604693      -0.36969996       1.06225137
S        4.50698150       2.47405612      12.21890990       1.16860717      -0.45315523       0.09279378
S        3.91824124       3.16058328      23.01024240       2.27824580       0.06545912       1.90929010
S       -6.91421109      12.74522435      11.35601149      -2.35516861      -2.09319630      -0.10800000
S        0.31145290       5.60871570      17.15564110      -0.13881724      -1.23500885      -0.61286315
Cl       0.20976497       1.54122213      24.57933147      -1.23408654      -0.04796020       0.45609623
Cl       3.54256495       3.62640012      19.18823640      -1.23418552      -0.63472888      -2.45155935
Cl       1.21768062       5.32065594      11.89423774      -0.50892883       1.00567979       0.31672074
Li       9.69125620       2.49514301      20.99097540       0.59534545      -0.00972141      -0.59201750
Li       6.13235081       5.29571838      17.29904063      -1.25235520       0.37833185       0.36308930
Li       6.93535017      12.93349240      13.68202954       0.07896399       0.58555101       1.04970396
Li       5.74813044       3.57358721      24.30424095      -0.31206320      -0.26333552       0.88063455
Li       6.30896606      12.12162196      18.98503122      -0.95009574      -0.53140584      -1.15578081
Li       9.74317007       2.42194124      11.98890981      -1.08742903       0.98823341      -0.14485191
Li       9.89506662       1.41555355      23.95975275       0.36885733       1.21493750       0.26433619
Li       7.85137506       3.21685946      18.26329718       0.20365411       0.19406851       0.47716743
Li      11.56220213       6.97132353      13.36357215       1.05573316      -0.47943136       0.79965549
Li      10.62871350      -1.18765985      14.82805349       0.68441768      -0.57502717       0.21524149
Li      10.62785617       5.33769828      21.84716572       0.36419278      -0.03754532      -0.62207544
Li       6.90805333       2.95821760      11.72243998       0.54401695      -0.02308011       0.92492617
Li      12.42282493       2.32397473      20.41289097       0.40004058      -0.00652585       0.37520301
Li       2.34629289      11.95556209      12.80879395      -0.82697795       0.23132046      -0.44466430
Li      11.18502298       3.97964625      16.45747269       0.07818024       0.80645291       0.83628625
Li      10.71871404       1.08322156      17.90211209       0.61918310       0.33309294       1.25792858
Li       8.87957710       3.86723759      23.82569026      -0.87106717      -0.19167706       0.69108789
Li       0.17023549       2.69653229      12.63945509      -0.23008213      -0.46612236       0.56811990
P        8.26564689       1.11038284      15.60940405      -0.87448369      -0.14192527      -2.03496028
P        7.53881412       5.69448629      21.66097636      -1.78471944       1.98073320      -0.59598466
P       12.38574662       3.20250404       9.13449491      -0.83401815       0.12339886      -0.92561367
S        6.57608723       2.13879720      15.00107572      -0.94134820       0.08674042      -0.01440497
S        5.74158543       6.78560377      21.25562999       1.16484391      -0.75989568      -1.32852986
S       10.40445386       4.42231595       8.42711892       0.42740034       2.60291531       1.28471178
S        9.91234098       2.03443771      14.81560242       2.07106265      -0.24427357      -0.09067590
S        9.17958646       6.65787962      21.14673338       0.89133960      -1.24461719       0.50265104
S       -0.79881716       3.10537803       6.48928508      -0.17541031      -2.81436343      -4.23110547
S        0.97280147      11.41666134      15.17135085       0.88189035       0.68096771      -1.27284071
S        7.39006486       3.80932764      20.81997114      -0.91245741       0.69567697       0.47548474
S       12.25089554      -0.02626080       7.56178307      -1.31263786      -3.60226445      -0.65904891
S        8.38124739       0.86674969      17.65804712      -1.27028074      -1.54308588       1.00350904
S        7.25042990       5.50494823      24.08194378       2.19075495       0.28045387       2.31497393
S       12.24871655       2.81819316      11.11840764       0.58764880       1.47278931      -0.50491031
S       10.76979666       3.38685881      22.98859101       0.34070149      -1.25674419       1.08667740
S        8.27371071       1.49882152      10.53985008      -1.70637165      -1.91319642       1.28241132
S        8.48124847       5.18506261      17.12012810      -2.46069177       0.23620979      -1.40358604
Cl       7.43967930       2.15062183      24.44272130      -0.16154155      -0.96022452      -0.33737452
Cl      10.86765546       3.09130442      18.69241780      -1.68612229       0.34857211      -2.58888092
Cl       8.37184045       4.92982737      12.57847545      -1.09879414       0.20729372       1.17866732
Li      -1.89492958       8.76575119      20.41949786      -0.21255465      -0.16276062       0.04914871
Li      -5.72719879      11.32996890      19.33688586       0.36776673       0.45869352       0.73548573
Li       2.30335935       7.16451824      11.34973718       0.13695391       0.72213417       0.50910683
Li      -4.68888536      10.09668844      23.54573889       0.43466291       0.12112550       0.25611092
Li       1.56879875       4.79318985      19.30296605       0.07865906       0.88620198       0.78375341
Li      -1.22016846       8.25777206      12.02474277      -0.23483071       0.59705871       0.25863325
Li      -2.00633399       6.87550401      23.55005515      -0.87657129      -0.07206530      -0.60983240
Li      -5.08076719       9.14534327      17.51740524       0.20444000       0.33962993      -0.58067364
Li      -0.87162392      13.41598032      12.07480779       0.23338305       1.35913075       0.12378848
Li       0.39556535       6.89717055      15.36658434       0.24349054       0.44265035      -0.80875185
Li       0.06797512      11.31439740      20.82501402       0.35023993      -0.15348215       0.29583084
Li      -4.93992155      12.41238555      12.57354697       1.75811451       1.78438268       0.61142552
Li       1.19711986       8.51089437      21.13803700       0.15144558       0.48394450      -0.27278247
Li      -1.03017275       4.76355244      10.49169355       0.09487211      -0.27119200       0.54472982
Li      -1.03644812      10.49518734      14.29706424       0.27163530      -0.11875202      -0.29113512
Li      -0.37984396       7.32360475      18.62578472      -0.23781676       0.25162155       0.80805033
Li      -1.88768472      10.47253857      22.81260846      -1.07971788       1.86243356      -0.55881718
Li       4.84758270      11.69246828      15.52542541      -0.43199330      -0.03944751       0.07464732
P       -3.18044845       7.45995211      15.67334714      -0.20366640      -2.19769208      -1.04514184
P       -3.56275518      12.18622456      22.09590712      -0.60189183      -1.20148583       0.05296844
P        0.91317796       9.56424332       9.93956446       0.22653523       0.55096228       0.30023641
S       -4.88366692       8.46609892      15.07933211       2.24838052       0.24444261      -0.71641813
S        3.03166532      -0.28617309      21.36422344       3.18205280       0.01992314       0.26021102
S       -0.99698642      10.09614442       8.33135146      -0.22478156       0.32051634       1.15335053
S       -1.40751243       8.16775407      14.75587316      -0.28863535      -1.36303890       0.84986033
S        4.38901925       0.22168916      20.12801249      -2.39847413       0.98096720       1.03803436
S        3.17218279      10.65959403       7.30341688      -0.62026860       2.19110320      -4.82638462
S       -3.45184087       5.36880787      15.34600206      -0.21577696      -0.94595788      -0.94978310
S       -3.60764808      10.11301060      21.47540098      -2.17502612       2.42800201       0.14263064
S        1.11263108       7.22140182       7.19421615       0.86475816       1.37345187      -2.91973711
S       -3.07226676       7.88817089      17.84946613      -0.96142083      -2.77667724      -0.61489535
S       -3.72242167      11.99545617      24.26052045       0.10212910       3.27705747      -1.26268712
S        0.94486082       9.28410724      11.99710406       0.02224633       0.90464320       2.52475660
S        0.13246343       9.29675977      23.35164037       1.53062644       1.84707769       2.39817441
S       -2.48823500       6.67824208      10.53190323      -1.00307929       0.88841545      -0.79654438
S       -4.16273501      11.69671110      17.31303285       2.33268903      -0.16991453       2.86565063
Cl      -3.04858699       8.58755971      24.89526595       0.60417848      -0.44721939       0.18110406
Cl       0.51605817       9.36051870      19.07219725      -0.88360136      -0.07358378      -0.43407696
Cl      -2.16420026      10.79021415      12.05443883      -0.60741289       0.44436421      -1.10185695
Li       5.84842705       9.76513790      20.91435082       0.33616536      -0.14673365      -0.15118552
Li       2.21757371      12.42234061      16.71270488      -0.66740669       0.32492912      -0.33184735
Li      10.35832697       5.57417455      11.23681337       0.10065273      -0.83059533       0.23767918
Li       2.23117253      10.21608395      23.81373833      -0.07183852       0.34185648      -0.96101016
Li      10.43024560       5.69856722      18.35265590      -1.06879277       0.19581360      -0.61920927
Li       7.84913437       9.65035135      12.27419252       1.05551814       0.47002678       0.07247117
Li       6.41758800       7.89784818      23.72043753      -0.27916989       0.11224640      -0.56580039
Li       2.89486906       9.73339860      17.06849049       0.48747107       0.33332839      -0.21275089
Li       9.34685510      11.02180084      14.87696448       0.41115047       1.25061794      -0.26495376
Li       8.51180177       5.83307276      14.93740664       0.46253701      -0.87699812       1.06657582
Li       7.26725344      12.03348560      22.32282815       0.85648567       0.63836728      -0.32414355
Li       3.03584509       9.28755977      13.36410535       0.18621693       0.78378257      -0.31372971
Li       9.11854000       9.11269014      21.11738417       0.54035492      -0.67927791       0.76030389
Li       6.13631665       6.12758366      12.08181609       0.18178752       1.30698773      -0.92870379
Li       6.40041624       9.85379345      16.83849005      -0.01619383      -0.37557618       1.08022562
Li       7.89006753       7.41173250      17.50046556      -0.53017428       0.09217176       1.09629569
Li       5.14288855      10.36327054      24.13868689       0.21887890       0.38459130      -0.44526971
Li      -4.09611860       8.10285135      12.74780499      -0.88294887       0.14513378      -0.15783005
P        4.36615752       7.45079116      15.49074184       1.55903196       0.76067753       0.31252402
P        3.82333929      11.76450520      21.66861862       0.80821603      -2.50253636      -2.01276463
P        8.95410988       9.27607326       8.89961238       0.82784295      -1.50402022      -1.34876827
S        2.48329401       8.28334417      15.27616759      -0.62282197      -0.36660640      -0.63578020
S        9.93541745       0.01896592      20.25657882      -0.25054405      -0.23642675       4.12352264
S        6.50876496       9.72643260       7.63719882       1.04900011       1.26910460      -2.89437337
S        5.64735432       9.13401537      14.53177757      -1.51902503       0.89839987       0.31125175
S       11.45019415       0.04588540      21.81958159       0.86150633      -1.69723103       0.84773221
S       -4.60079449      10.54152084       7.68241938       1.24022780       0.87482872       0.22707936
S        4.72202329       5.54233804      14.64796098       0.78864287       0.01639444       0.08047637
S        3.58070636       9.79279766      21.39852354      -2.08773206       1.19549479       1.43320309
S        9.30660945       7.41706353       7.09099646       1.69289431       2.38526277      -0.75247299
S        4.81727091       7.19682621      17.55314833      -1.29103612      -0.20556739      -0.20752195
S        3.70984996      12.23523214      23.62019422       0.25063630       0.23053423      -1.77529472
S        8.94063459       8.21499750      10.52335401      -0.70006779      -1.25860376      -1.52983391
S        7.37358864       9.81456881      22.84927412      -1.29478578      -1.35698148       0.81783689
S        4.63851456       7.55807326      10.41563525       0.23659562      -0.63936609      -3.14338079
S        4.45570367      11.42178064      17.63127598      -1.16797089      -0.75242398       0.72297194
Cl       4.01894785       8.16054196      24.67827185       0.92675713       1.25787733      -3.24789036
Cl       7.31815316       9.54345193      18.87213395      -0.56130548       0.09791072       0.74163708
Cl       4.47306013      11.80031623      12.13928006       0.93933331      -0.21384060      -0.63218368
S       10.30630221      10.79105053       8.82461120       0.30204792       1.31278736       1.12707069
S        1.25200712       0.25725822      10.47740171      -3.16473369      -2.34073171      -0.96255784
S        1.30732701      13.59841952      10.91221967      -0.70522826       0.51922411      -0.55273368
S       -2.99147013      -0.59535193       8.48824355       0.32719974       0.34264231      -1.00685081
S       -9.03631706      10.07988361       8.94384294      -2.89891282      -1.13641157       2.63315382
S       -8.21983511      13.75097578       7.48043474       2.02387115       0.35170346      -1.30701832
S       13.83540762       4.29310415       8.12521009       1.26199388       3.14264431       1.91669441
S       -2.19101066      13.78060308       8.12060460       0.42967687       0.76204855       0.45718272
S        5.25537967      13.78941495       8.86265223      -1.95320992       1.58425561       2.11955260
S       -5.05772760       3.17059324       9.65232985       1.79946206      -1.17819793       2.65529478
S       -4.19779136       5.92210529       6.28105896       1.69135454      -0.77538842      -0.36362479
Cl      -2.89898419       3.81680962      19.32360235       0.28135090      -1.62749097       0.91747872
S       -2.86110811      14.58549359      11.89685420      -1.60355529      -3.24740391      -1.70992954
S       -3.36675968       3.78746476      23.26994952       0.57132340       0.93674890       1.07565115
S        4.72899867      -1.31097618      16.76661930       0.17891262       0.36590311       0.69033749
S        3.61546365      -0.64992154      23.49710750       1.28485263       0.23804535      -1.22526911
S       -2.35388813       2.94882548      12.01163746      -0.31931203      -1.72207915      -1.32302176
S        0.55347264      -0.60544133      14.96680633       0.51952225       1.05611860       0.14972959
S        5.56782251      12.64679802      21.01417364       0.11532281       0.22168000       2.92890007
S        8.73643604      13.42922762      17.28893465      -0.06990134      -0.31374491      -0.59235571
S       11.04734886      -0.46836659      23.59111324      -0.73112577       0.65366204      -3.29038514
S       12.08243921       6.83065604      11.10423829      -1.47090949       0.15606024       0.11548133
S       12.14430408       5.94832870      15.32751412      -0.47507900       0.59766260      -2.68897682
S       12.49582941      -0.90814063      16.76475917       1.56644705      -3.94904378       1.26916574
S       12.03843021       1.20501795      15.84022948      -3.27418841       3.01527417      -1.99076097
S       12.25716023       6.00548933      20.42483959       0.92573571      -1.86803343       1.26525180
S       13.72810170       4.26630708      20.85206991      -2.55113592       1.67721993      -1.21379417
S        7.93012004      -0.83230118      14.74284363      -1.36696850      -0.92010533       0.54096685
Cl      -6.87238832       9.65846177      18.68561991      -0.21626893      -0.79572109       0.81689958
S       -6.46042182      13.70111670      16.86547576       0.22657026      -0.56265260      -0.50120973
S       -4.81068604      13.02445013      20.81049026       1.04290096      -0.34647835      -1.07321383
S       -6.96441132      10.43216939      22.97286605       0.72804122       1.73289108       0.21951862
S       -1.59617208      12.96851962      21.62647022       2.73168748      -0.75867375       1.84664445
S        2.09909986      12.87243298      20.56739106      -0.39705427      -2.41527561      -1.53665925
S       -6.59161710       8.32279319      11.18931114      -1.54717553      -1.69800615       0.26100533
S       10.94802138       7.89022016      15.93868429       4.66104366       0.94802773      -2.55879260
S        8.92077692       8.73650134      15.72274131      -1.25200319      -0.70424512      -1.72153549
S        8.47156006      11.86284377      12.50248795       1.91649115      -2.29290772       1.05286153
S        7.35533947      12.33090430      15.91214666      -0.21363234      -0.89809941      -0.64757754
S        9.51945196      12.15066555      21.33263397       0.14742611      -2.08055465      -0.16754914
S       10.79857523      10.36522426      20.62799991       1.03940130       2.21593774       0.82799589
Li      -7.14480363      12.07977634       9.10224183       1.13343555      -0.13602463      -0.12858606
Li      -2.32874353      14.87649231       6.07911366      -0.82483566       0.52151353      -1.41239784
Li      -8.56624119      15.12909697       9.15428291       0.91580900      -1.33384773      -0.22841016
Li      14.17866366       1.01911757       8.71992446       0.05201296      -0.12846371      -0.45031279
Li       5.45424199      15.72394839       8.29230212       0.24558472      -0.13798409       1.12793089
Li       9.03335139      12.51691556      10.29278782       0.10183388       0.17754305       0.34864975
Li      -4.86794166       0.65854946       9.69182018       0.19091788      -0.26365016       0.32672280
Li      -5.55860366       4.51039586       7.67512926      -0.66178752       0.93220968       0.79975485
Li      -1.77095039      -1.79944550       7.11269810      -0.49090177      -0.42013130       0.82596117
Li      -9.93265160      12.57567720       8.41238649       0.35810212      -0.71536924       0.01910065
Li      11.92578922      -1.82086462       9.23563837      -0.47097641      -0.14480755      -0.50032642
Li     -10.50578550       8.89672130      10.48226077       0.24637838       1.54702163       1.38188783
Li      -8.46338162       7.90921372       8.20818840      -0.98982483       1.22620022       0.10686056
Li      13.50280877       5.03073734      10.56045178      -1.08640859      -0.56887241       0.94719121
Li      -2.63650197       5.54376545      12.86557046      -0.05700899      -1.01054713       0.12712272
P       -2.85138147       2.91646507       9.89497729       1.82698765      -2.03295680      -0.34868033
Li      -4.64219789       7.04452649      10.10963208      -0.54235696       0.56859612       0.47019582
P       -6.35035836       9.10630131       9.15266783       0.41028268      -0.77537242      -1.04999528
