279
Properties=species:S:1:pos:R:3:momenta:R:3 LayerForceGeomOptConstraint=T E_ref=-1067.9681016663387 step=2600 pbc="F F F"
Li       4.08106669      13.26361762      18.51257444      -0.25260936       0.02727048       0.36988812
Li       7.04810972      11.40071594       8.17651222       0.32741460       0.03915060       0.17786865
Li       2.58997874       0.74289867      12.25643440       0.42950811       0.51242592      -0.31772038
Li       3.85422231       6.12029652      22.80330243      -0.52808702       0.12231893       0.04392432
Li       1.67851897       7.70315823       8.62996490      -0.37052793      -0.93928352       0.03673972
Li       6.88006004       1.76043142       9.97050441      -0.36571128       0.26603986       0.13007488
Li      12.33381935       0.59615678       8.36116735      -0.22288354      -0.05087255       0.08782936
Li       2.20655623       5.25979894      10.51458178      -0.12922345      -0.34855775       0.27689386
Li      -2.34348200       2.63308881       5.72356716      -0.12419998       0.15296375      -0.23906014
Li       6.49992945       0.00670420      11.96430187       0.24838795       0.50214933      -0.05821325
Li       6.44162987      12.29974673      11.42757278       0.11814552       0.22923538      -0.16120936
Li      -0.29063368       5.64597362       3.69595891       0.06513838      -0.08847224       0.25249012
Li       4.34396713       2.66153886       6.61623798      -0.86508541      -0.00237731       0.21860524
Li       2.61832432       0.19269493       9.71132035      -0.40592571      -0.04762998       0.22104425
Li      -1.88309697      10.71229165       8.07805443       0.20075803      -0.26961806       0.12079067
Li       0.19294935       1.67647890       6.32938287      -0.18411119       0.06397544       0.38627256
Li      -5.56136108      13.02245711      21.89616021      -0.21548353       0.74925262      -0.16361515
Li      -0.79853141      13.23308538      10.49147101      -0.50479837      -0.28208276      -0.59188790
Li       8.76489705      -0.43557200      13.40432157       0.07423667      -0.01841789       0.66310791
Li      11.47181482       6.55551915      21.72840630       0.77080045       0.46256913       0.32252691
Li      10.39129956       4.73272898       9.52837177      -0.29616430       0.52938737       0.17108233
Li      -1.14619168       3.41684500       8.31366100       0.07846001      -0.49321012      -0.00371489
Li      -5.54125157      10.93053025       7.91085976       0.49424363      -0.03027705      -0.18646539
Li      11.12795029       5.48466316       6.42420777       0.57757130       0.02125661       0.86602085
Li       4.48892158       1.96180641       8.85872179      -0.04507025      -0.30003799      -0.05944092
Li      12.90038223      -1.11476684      12.47342286      -0.26301684       1.19058192       0.09848410
Li      -7.06863835      11.54120799      12.93243139      -0.21531664      -0.19616829      -0.13308722
Li       4.39797767       5.38531158       8.04950765      -0.22888584       0.48148275       0.63968724
Li      13.35426433       2.85068268       9.93348713      -0.41130059      -0.01235175       0.45957629
Li      10.53381549       1.92274025      10.60414913       0.19695550      -0.24161784       0.56657276
Li      -3.09742706       8.41490912       8.82539739      -0.44255342       0.09492318      -0.86064385
Li       8.49408388       3.81159307       6.93465845       0.08857379      -0.24098394       0.18652828
Li       9.90906406       5.81526964      24.15207660      -0.58596169       0.38904699      -0.21640233
Li      10.35241376       9.56529602      10.80762064      -0.92161451       0.33114296       1.38319204
Li      -3.42978708       9.54554446      11.38916572      -0.00388391       0.46764709       0.14208719
Li      -2.45003414      10.06444712      22.20791728       0.27616929       0.77854033      -0.15709159
Li       0.54537705      11.42334763      11.99586981      -0.06282366       0.42871817       0.85320690
Li       4.23418082       7.51158373      10.51586117       0.03057190      -0.85574409       0.21024310
Li       0.10324664       6.19715302       6.99812569      -0.14090831       1.20481710      -0.14427398
Li       1.28007283      10.11211156       8.57574838       0.44605632       0.30305692       0.49218436
Li      -3.67686402      12.37811688       7.14342842      -0.11838473       0.47202192      -0.53741921
Li      -3.15385577       8.94181852       4.62906642      -0.46570428       0.30974285       0.65499254
Li       5.45904650       4.72262190      10.48396470      -0.22176007      -0.52476585       0.06973468
Li      -4.90698941      12.44992658      15.74007904       0.51390019       0.81485156       0.66100603
Li       3.54466756      11.80527875      10.62516217       0.11326939       0.33059573       0.18726787
Li      -0.72982607       8.75936308      10.80152172       0.59283509       0.11198790       0.57359445
Li      -2.31738827       5.63443803       5.59374733      -0.46479295      -0.37058413      -0.08252311
Li       0.84089510      12.95498896       8.19919589       0.12921557       0.22427451      -0.45261216
Li       0.81993618       7.80863657      23.09254012      -0.78504553      -0.76600540       0.63453753
Li       1.84183749       2.71577206       9.33191843       0.36759405      -0.05500238      -0.27670713
Li       3.90653203       9.27759507      12.88813631       0.31723618       0.32766951       0.26823372
Li       9.67293120      10.33601517      23.75233884      -0.33200213       0.51334751       0.11269874
Li       5.16959556       9.34365394       8.87985607       0.49956337       0.28764961       0.12418315
Li      -5.07015409       7.94968560       7.06989099       0.19411128      -0.05943747      -0.54494589
Li      -2.11042486       7.96536529       6.59590853       0.33465825      -0.16718851      -0.15448660
Li       3.59957570      10.26903877       5.70711945       0.26512879       0.31946875       0.30984018
Li       0.23509662       9.05857477       5.78533192      -0.25091799       0.39831798       0.73478512
Li       7.16462057       5.46190942       8.19193936       0.28654434      -0.06004349      -0.14030276
Li      -1.54176102       6.16622510       9.49247601      -0.92197773      -0.02293591      -0.42092912
Li       4.10772026      11.90810188       7.44589733      -0.67526396       0.51254929      -0.12884258
Li       7.39109153       8.41751294       7.39706075       0.01973661       0.27992782       0.12537703
Li       5.58541443       6.67220236      13.27608158       0.17369712      -0.69237661       0.31728308
Li       1.67612451       3.71527543       6.52740912       0.13744088       0.09840667       0.33526539
Li       9.83529494       7.54359511       8.63089915      -0.57046679      -0.31901923      -1.08471431
Li       2.84728542       2.39830331      20.39115929       0.02169922      -0.20253193      -0.00597342
Li      -1.91313371       5.24757622      18.55892337      -0.46938886      -0.34903697      -0.07686594
Li      -3.04945942      14.27523286       9.32866683      -0.31281190      -0.12506025       0.16129840
Li      -1.11797163       3.27414658      23.04634013      -0.31421846       0.43183751       0.49644077
Li       6.12393539      -1.22940675      18.66844009      -0.38598380       0.22212505      -0.23568772
Li       0.15171681       0.11922730      13.07233785       0.33989385      -0.03243104       0.54249214
Li       2.65160801       1.44974244      23.38304126       0.27328299      -0.08203613       0.53222508
Li      -1.44098033       1.04689003      16.75160408       0.34918243      -0.68948566       0.13756284
Li       2.55793027       4.00106672      16.60303355       0.04906881       0.00211459       0.51326029
Li       4.62357851      -0.38634364      15.68696169       0.03575709      -0.22860362      -0.15752684
Li       4.80667746       4.36583811      20.43523157      -0.12343413       0.08225885       0.25329198
Li      -1.58945559       1.25902866      10.17796303      -0.16911231       0.37661395      -0.58575834
Li       5.33494185       0.98293468      22.25592759      -0.69424591       0.65651091       0.37404332
Li      -3.49835534      15.67571758      13.34167142       0.13844030       0.01842966       0.08986367
Li       0.08801540       3.01173318      18.25659144       0.43557282      -0.25172625      -0.13082306
Li       2.85569115      -0.52128433      18.16401401       0.22836272      -0.33925745      -0.06934032
Li       1.68018247       3.75605368      23.19336875       0.00215863       0.56779222       0.18756913
Li       8.99307506       2.26512790      12.41704070       0.49704845      -0.45757072      -0.17430288
P        1.52237655       1.09375004      15.14729496      -0.74324607       0.06691758       0.75030843
P       -0.12805098       5.54152774      21.43060688       1.07989721      -1.31561334       0.01376163
P        3.56824951       3.14874778      11.04675730      -0.05206736       0.84553541       1.46265152
S       -0.30323199       1.90582595      14.53928846       1.73567157       0.69735703       0.10413140
S       -1.86500635       6.32212228      20.73116923      -0.68417713       1.51888604      -1.24993089
S        1.88226416       5.35420310       8.25534065       0.70986927       1.13754990      -0.48774524
S        3.19501025       2.29757647      14.88077968       1.85186912       0.96699938       1.01148073
S        1.55660275       6.58450274      21.04516311       0.97074735      -1.07037179      -0.05804303
S        6.08185032       3.46203738       8.12965833       0.83481983      -0.73007596       1.01074006
S       -2.78460943      15.20415889      15.63420370       1.02552321       0.93009559       0.80494989
S        0.03828646       3.49295194      20.74388115       0.25952872       0.17858266       1.56117453
S        2.57816326       1.38382091       7.45180026      -1.09409487       1.12131388       0.05069566
S        1.07229544       0.72035184      17.21575786      -0.10393675      -3.20693116      -0.01345607
S       -0.13670412       5.60730176      23.77458299       0.55246559       1.41771216      -1.36890778
S        4.66810294       0.91261087      10.83884022       0.36591646      -0.04968516      -0.31825761
S        3.78671297       3.62525210      22.47196820      -0.17413325       1.28555113      -0.54946531
S       -4.86126094      10.70756833      12.82276651       0.74566341       1.15793046       0.17992667
S        0.44914363       5.12557413      17.27038317       0.46886246      -1.76092443      -0.97088451
Cl       0.64734855       1.86994013      24.14456298       1.00372212       1.77400948       0.95593725
Cl       3.71907317       3.81733309      18.61484056      -1.05062377       0.62283798      -0.75044208
Cl       0.38783138       5.32791453      12.11673983       1.08326465      -0.10539490       0.41278596
Li       9.26321072       0.45807968      23.63798992      -0.46780447      -0.39689201       0.29290643
Li       5.05650194       5.49087881      17.82459071      -0.45260640      -0.12228167       0.08736187
Li       9.54218980      11.60472759      14.68257935      -0.01210146       0.21195275       0.43786953
Li       6.12108050       3.70359750      23.16182005      -0.75078046       0.17618250      -0.15875767
Li       8.14596634      11.26177164      17.56157662      -0.42647928       0.06526185      -0.45857212
Li      11.30446701       4.32107449      14.41934166      -0.49001666       0.04288366      -0.17838932
Li      12.15823526       2.39624181      23.16090711      -0.27197052       0.64399600      -0.14568251
Li       7.77611623       3.48188879      17.48760727      -0.77581990       0.22760270      -0.53207160
Li       9.61158769       5.33650769      12.58377908      -0.18259083       0.24018778       0.82065662
Li      10.87884306       1.39729801      15.27260473      -0.02134339      -0.27979545      -0.97596489
Li       9.49521007       5.38841926      18.51362912      -0.40160508      -0.11744478       0.22667061
Li       5.54432135       2.34198925      12.84136174       0.30107217      -0.66537722       0.86673649
Li      11.18306180       3.70409655      20.50175694       0.47139357      -0.49616701       0.10583078
Li       2.03418562      13.39465277      12.75235450      -0.10833251       0.48169434       0.40463141
Li      12.21043367       3.36474327      17.81876200       0.22151294       0.29201235       0.00676653
Li      10.18485339       0.74537958      17.54781595      -0.35438891      -0.54661714       0.64489380
Li       9.06141699       3.03637392      22.34483363       0.00930145       0.02598505       0.22911141
Li      -0.14869164       3.06508462      11.86959145      -0.59074817      -0.04826399      -0.00536298
P        7.93009513       0.71269692      15.75227851      -0.55314135       0.21508905       1.39707868
P        7.02968071       5.95403551      21.55887718      -1.85133561      -1.11922714       1.90848012
P       11.78101423       3.00880415       7.00798799      -0.22319086       0.13016668      -1.11680771
S        6.31584018      -0.00391637      14.35664198       0.08689491       0.14309835       1.00356952
S        5.34355846       6.96176352      20.81127909      -1.37516943       0.66340927       1.68757683
S       10.15323066       2.29854196       8.18841332       0.36557384      -1.23310359       1.06692732
S        8.60547753       2.51513547      14.93549123       0.40929285       1.30574670      -1.13008607
S        8.67445459       6.81040143      20.73943744      -0.41164417       0.29566144       0.70913517
S       -0.52169387       4.17641559       5.66441969      -0.21239368      -0.70678613      -0.50643389
S        0.69205780      12.35213654      14.24828497       0.33622833       0.05122633      -0.65213154
S        7.20128625       4.03604638      20.86281362       0.85106870       0.85283618      -0.44268263
S       12.60424595       0.42260900      10.64046247      -0.50133263       0.09643708      -0.59780103
S        7.26308248       0.83371271      17.62100960       0.19164096      -0.05456532       0.26254829
S        7.04314059       5.90540911      23.70987124      -0.64367287      -1.02260034      -0.05331775
S       11.05708982       3.64532145      12.16212595       1.35201421      -1.31606645      -0.60241863
S       10.97018339       4.46311390      22.68037641       0.31936510       0.72152857      -1.25718951
S        8.58106381       0.38930733      11.02498939      -2.45889003       0.39933463      -0.31339387
S        7.36771353       5.65981239      17.30648995       0.65419878       1.22992198      -2.22122696
Cl       7.22565234       1.74172220      23.39368263       1.24015472       0.25719972      -0.43046103
Cl       9.81120774       2.89943242      18.70999379       0.91227318      -0.86052229       1.28042764
Cl       7.29985878       3.57995225      11.75053736       0.73890362      -1.11576703      -1.02701703
Li      -1.66095114      10.92959924      18.14299030      -0.25093761      -0.17221726       0.63011916
Li      -6.14450163      12.13628837      19.13088060      -0.07249756      -0.40147232      -0.29883231
Li       1.84280471       7.08106671      12.81747507      -0.68444608       0.04091741      -0.16325329
Li      -5.33976882      10.06182881      21.87991603       0.02339944      -1.05515291       0.48417434
Li       1.96563731       6.26819200      18.77119474      -0.46150446      -0.18529334       0.29456257
Li      -3.70725780      10.05171030      14.60362540      -0.39718996       0.02955578      -0.87337049
Li      -3.05295867       6.43039318      23.09023943       0.17226131       0.21511105       0.30553916
Li      -4.79733612       9.93147056      17.43581401       0.31538076      -0.41378315      -0.57521986
Li      -1.45949210      13.58721239      13.98871447       0.61399095      -0.36586887       0.10847080
Li      -1.21652292       4.21122347      15.95515674      -0.39403582      -0.45576577      -0.41955605
Li       1.45224905      10.65237431      20.42016909       0.13018386       0.41912437       0.19121410
Li      -2.52379772      13.42687193      17.44236091       0.76634570       0.40747352      -0.37638724
Li      -0.70592426       8.80929739      20.44106037       0.55676657       0.08863160       0.22010675
Li      -1.38076044       6.43352653      13.13569428      -0.20265492      -0.16497960       0.31354924
Li      -0.90418228      10.70104858      15.25570480      -0.35101850      -0.21611477      -0.18838139
Li      -0.09160184       7.44465401      16.99519760      -0.67648794      -0.25116424      -0.16266827
Li      -0.48973671      12.19304401      21.95217320       0.05246482      -0.20291516      -0.33954065
Li       5.50316300      12.18215443      15.19960526       0.27996306      -0.07092604      -0.60533624
P       -3.26712176       7.33825041      15.52837194      -0.71926588       0.76363366      -0.52385313
P       -3.08782960      12.23267009      20.41349526      -1.17571712       0.74232012      -0.27646458
P        2.74843981       9.37538689      10.19956041       1.32094308       0.76606010      -0.73278309
S       -5.17680450       8.01960281      15.23689966       1.00896038      -0.28391598       0.98524300
S        2.89237780      -0.58798839      21.75803737       0.36736139      -0.61588992      -0.88954964
S       -0.55446682       8.33000487       8.20864684      -0.93689823      -0.60549824      -0.20617767
S       -1.71997310       8.38646315      14.64253884       0.82785325       0.37344616      -1.14128639
S        3.89961203       0.16206103      20.11639775       0.28123838      -1.35552460      -0.09904528
S        1.66275831      11.28256300       6.32904110      -1.05190234       0.69449276      -0.06638669
S       -2.92125405       5.43921307      14.72914080      -0.71158373       0.64319000      -1.76123923
S       -3.32759183      10.21271149      19.87664352      -1.69881954      -0.61072214       1.48460206
S       -1.36058606       7.77927805       4.41267676       1.29454897      -0.80164870      -0.33555922
S       -2.82897808       7.42109209      17.49299702      -0.04108164       1.81641293      -0.21205182
S       -3.01727337      12.31184306      22.51679157       0.03064053      -0.03984765       0.18698687
S        1.51888476       9.27842765      11.86814239       0.27340050       0.19811669      -0.93123587
S       -0.07556823       9.97466594      22.43718764       0.96448591       0.69971035      -1.92887538
S       -2.71213839       7.29379997      11.18319556       0.86636571       0.24959376      -1.43235526
S       -2.87814906      11.37065478      16.33808920       1.33953308       1.21204011      -1.55048911
Cl      -3.91088733       8.59086345      23.32550678       0.28564550       0.24761073      -0.44074496
Cl       0.30593511       9.32346598      18.56194566      -0.55414713       0.73427836       2.00857352
Cl      -1.49206234      10.93143242      10.89762904      -0.42022747      -1.74479535      -3.01886736
Li       4.97112850       9.61834453      22.83547468      -0.00106956      -0.41099691       0.20449007
Li       2.09850963      13.02564810      15.87238304      -0.03878427      -0.12913906      -0.02183879
Li       8.46076151       7.14299287      11.07729700       0.09520657      -0.06678527       0.06716251
Li       2.21825287      10.45810178      23.00349836      -0.52877869      -0.32920967      -0.28607310
Li      12.97382323       6.38496888      16.70539000       0.07963121       0.53012605       0.70508027
Li      12.20241137       8.61217452      13.22367058       0.79595765       0.12295724      -0.29334037
Li       8.02008138       8.16917475      23.89052697       0.03592319      -0.11762797      -0.48698330
Li       2.53595292       9.87088667      17.81450335      -0.39527649      -0.58053648       0.62358651
Li       9.58954036       7.98574122      14.42900032      -0.30501830      -0.00874710       0.33799510
Li       7.17206347       6.91860376      15.47861608       0.43607668       0.63063236       0.03543683
Li       6.31845007      10.79955099      20.48978453      -0.26755248      -0.01486155      -0.35328986
Li       2.56313103      10.60394645      15.09206604       0.14389023      -0.02209181      -0.06895558
Li       8.86044722       9.11146880      21.43360523       0.11424111       0.21367621      -0.49620544
Li       2.84341503       4.16205392      13.41336585       0.57000313      -0.66941396       0.00028601
Li       5.28671400       9.57590670      17.05493509       0.11968759      -0.81074779       0.23725481
Li       6.88978078       7.08313218      18.95903686      -0.37101822      -0.22609944      -0.92437607
Li       6.31860394      12.20458561      22.87645015      -0.47417856       0.05027057       0.31806618
Li      -5.26227622       8.37237094      12.86471049       0.33851932       0.02598101      -0.91043816
P        3.48870486       7.30155791      15.73506364      -0.51405245      -0.26256224      -0.61921566
P        3.74898969      12.29221712      21.07101313       0.43155521      -0.74439591       0.49609352
P        7.56750795       9.57369861      10.30751254      -0.70333467      -0.86335414      -0.33067252
S        1.55745221       8.04470210      15.07785636       1.03055925      -0.47100825       0.14316900
S       10.37621580       0.97910777      21.50246685       2.09163819      -2.29062688      -0.61181154
S        5.63431140      10.15147662       6.84496031       0.32477873      -1.12616438       1.21006560
S        4.90259638       8.47880255      14.74980415       0.72811399       1.00483928       0.36653799
S       11.64839693       0.06720308      22.84911295       0.58634814       0.06420318      -0.07626696
S       -3.77302998       9.92412100       6.62008276       1.05417963       0.10662625       0.81688330
S        4.00148425       5.32671930      15.60890520      -0.75181469       0.12610605      -0.66793515
S        3.74628559      10.28488515      20.52721612       1.71754981      -1.74097540       1.26173333
S        8.98701291       6.02717743       6.84497802      -1.44713218      -0.69538780       0.19305949
S        3.74505093       7.96243369      17.73863888      -0.32769885       0.25108101      -2.41283993
S        3.84699058      12.14109806      23.19987881       1.26165659       0.21104875       1.23480822
S        6.22888252       7.24354686       9.61678989      -0.82072675       1.33282300      -0.47226575
S        7.33335861      10.33337618      22.61815497       0.95438819      -0.54254285       0.43983233
S        3.82423441       5.91888375      11.95629535      -0.80094254      -1.02095957      -0.23938877
S        3.64060702      11.78054534      16.76575990      -0.10538283      -0.80543577       0.49718162
Cl       3.15919233       8.58143599      23.73966752       0.83836838      -0.04718944      -0.66531342
Cl       7.03928014       9.57151757      18.75964480      -1.05686848      -0.95337928       0.49500337
Cl       4.44194892      11.59115509      13.11673316      -0.82534297       0.01592784       0.03760700
S        8.98571252       9.86753350       8.78059043       0.14937714      -0.09043429       1.18640224
S        0.61093241       0.91182574      10.65060267       0.32049061      -0.95762392      -1.13866225
S        1.64356919      13.36539742      10.48991286      -0.06285426      -0.48817525       0.31317556
S       -1.79890068       1.08780532       7.57497654      -0.17048862      -0.42818824      -1.27971960
S       -8.44700031      11.21981437      11.03672423      -0.23191496       0.42378452      -0.48706693
S       -4.90317956      12.74993074       9.14899025      -0.41677780       0.34871181      -1.50302553
S       12.71149803       4.48640442       8.35824453       0.01821767       0.52442493      -0.73873089
S       -1.42704852      13.07268446       7.78620788      -0.10212489       0.05497544       0.32886349
S        5.33439092      12.92066581       9.25149449      -2.19242403      -0.19073754       1.17680832
S       -5.15754575       3.58827964       9.55098220       1.71058215       0.04177792      -1.70596715
S       -3.51015014       6.13938691       7.43445839      -1.30510714       0.28098865       0.22100186
Cl      -2.14356539       2.77146124      17.88812890       2.35444263       0.66849485       0.13266126
S       -2.42620244      14.37377290      11.63896991      -1.24263002      -1.36233944       1.12501734
S       -1.94440752       4.77946947      24.42789889      -0.61290112       0.26549836      -0.26469893
S        4.34364135      -1.90649354      17.20047968      -1.30650258      -0.20455601       0.83257344
S        3.89702444      -0.60112588      23.54341793       0.25164007       1.08698376      -0.15307765
S       -2.58061356       3.04100224      11.84857633       1.13512413      -0.46028220      -1.54006530
S        2.08366831      -0.61800424      14.10002004       0.39538948      -0.73816004      -0.14934732
S        5.65196524      13.04409876      20.41830400      -2.07955525      -0.98571831       0.29507838
S        7.90110119      12.69057665      15.83092197      -0.45508713       0.08669191      -0.26104096
S       11.42777861       1.01537045      24.68613203       0.44592493       1.78082920       0.60019663
S       10.76064310       6.96666839      10.59603151      -1.42026373      -0.19368241       2.16977069
S       12.92937020       6.35130584      14.24763308      -1.34914426      -0.84663055       0.80128164
S       12.55038957       1.26624034      16.90437781      -1.22457327      -0.41925329      -0.78425626
S       12.90646995       2.94542968      15.67209292       0.58021055      -1.37408117       0.90314170
S       11.82052052       6.36856258      18.97173306       0.24788035       0.36872762      -1.06591504
S       13.07416313       4.74884009      19.29852552      -0.26701072       1.01388000      -0.15988183
S        9.62308835      -0.63078241      15.57347025       0.26707282       0.00468576       0.50538453
Cl      -6.44648000      11.29783938      17.04148779      -0.67532599       0.71408903       1.12571298
S       -4.70957020      14.77710390      15.17574814       0.33482074      -1.34851526       0.01598342
S       -4.31722622      13.69706688      19.73277264       0.67926810      -1.49265085       0.12511899
S       -7.04660120      11.54424503      21.18401009      -1.61483759       0.20329144      -0.31521008
S       -1.21338475      12.75955263      19.53225040      -1.20222063      -0.89608695      -0.46609965
S        2.15497323      13.24826563      20.30621362       0.85427211      -0.43697211      -0.96626534
S       -6.30441075       7.28566915      10.94938651       0.82702779       0.63617456      -1.51038031
S       10.97108740       6.41266250      15.01527330       0.33475894       0.09508211       1.31413359
S        7.84930456       7.10127424      13.33396583       0.02842411       0.08093017      -1.07147135
S       10.50315350       9.98219018      13.23629971       0.42939137      -0.21180849      -0.75295951
S        7.36496525      10.74592723      15.24521963       0.07501749      -0.17607483      -1.14691121
S       11.06926942       8.60539404      22.69460303       0.19669785       1.28129603      -0.21971018
S       10.29024562       8.06270735      24.62882423       1.37585090       0.25988251       0.94269884
Li      -5.94889898      10.89241900      10.76644244       0.19270511       0.32518328       0.45192720
Li      -0.37223915      12.38504427       5.94087734       0.71144736       0.27137869       0.32257731
Li      -3.74173570      12.37183585      11.41234807       0.07425847       0.41680892      -0.27389206
Li      12.80349130       2.04969147      12.99029782      -0.24987081       0.64952740       0.39143909
Li       3.81042456      14.38987273       9.82552950      -0.09015310       0.05631073      -0.57121370
Li       8.00765987       9.61209003      12.76690219      -0.39507690      -0.67769058       0.36007186
Li      -4.03005078       1.82404699       8.43578808      -0.36591890       0.02635934       0.80023580
Li      -4.81766720       4.35420943       7.26958750      -0.41244872      -0.10873434       0.07389106
Li       0.27467072       0.52005977       8.45149362      -0.09929254      -0.18539688      -0.03602680
Li      -7.22667737      13.01610173       9.82735025      -0.01359574       0.17503849      -0.05125003
Li      10.44419134      -0.75205955      10.52983134      -0.25280368      -0.06449181       0.36513575
Li     -10.02688040      12.62875022      10.86772317      -0.15951072       0.57736562       0.53748708
Li      -7.87728286       8.96155240      10.32372177       0.38320923       0.38359807      -0.31096577
Li      12.23622130       5.78060587      11.97689157      -0.04468278       0.04491651       0.32401161
Li      -3.76217537       5.06633834      12.45370348      -0.60254793      -0.05326784      -0.14371683
P       -3.08344962       3.85825692       9.98545983       0.38872032       0.20059171       0.89671659
Li      -4.60793938       6.35280462       9.58517028      -0.08410454      -0.08595678      -0.19302854
P       -5.54527730       8.56543146       9.57344164       1.56910686       0.42108230       0.76830201
