279
Properties=species:S:1:pos:R:3:momenta:R:3 LayerForceGeomOptConstraint=T E_ref=-1069.7248771958773 step=3200 pbc="F F F"
Li       3.42685106      13.40752159      18.66207252       0.42627074      -0.06825139      -0.42786303
Li       6.77743343      11.26427349       8.16670905       0.56809947      -0.05097232      -0.88001323
Li       2.47463594       1.01889168      11.97974551       0.02029126      -0.59822789       0.61877887
Li       3.29415657       6.00740224      22.40846268       0.29764691      -0.22670424      -0.35997086
Li       1.88321788       7.19821231       9.38659036      -0.45439536       0.74563992      -0.20567648
Li       6.43753014       2.20333884       9.15494159       0.20125291      -1.30376402       0.42152412
Li      12.88441624       0.90833146       7.45401135      -0.98396547      -0.15800505       0.02727629
Li       2.52702033       5.01870081      10.92938327       0.35413280       0.39141291      -0.52743034
Li      -2.11334557       2.70962887       5.02831871      -0.39376583      -0.36951167      -0.08607443
Li       6.55005484       0.56110443      11.71427307       0.08139173      -0.13437792       0.11396869
Li       6.62509320      12.59417208      10.95667399       0.05255881      -0.23211319      -0.04086705
Li       0.46958619       5.85027489       3.82571459       0.13264900      -0.47581151       0.08349901
Li       4.68538206       1.40372062       6.35050894       0.29906303      -0.56884332       0.10780778
Li       2.60491666       0.24928409       9.47225009      -0.46365625      -0.21566330       0.73815971
Li      -1.02454122      10.87036437       8.06834604      -0.62804560       0.55539560       0.04245306
Li       0.11480794       1.70454351       5.90910702       0.20371169       0.19251596       0.35226455
Li      -5.61958835      13.12355289      21.78967284       0.03346698       0.21592432       0.28467177
Li      -0.31819391      14.02541629      10.21754014      -0.33219603      -0.11152675      -0.33800271
Li       8.43238616      -1.05509484      13.29285294       0.80608067      -0.19791268       0.29722711
Li      11.65670419       6.80360902      21.50796135      -0.16826093      -0.30556532       0.17881325
Li      10.08853054       5.00808032       9.36960695      -0.17323954       0.80382471      -0.11321699
Li      -1.94583706       3.86285760       7.59293745      -0.19322840      -0.40572023       0.78109915
Li      -5.00940237      10.99871561       7.44527907       0.01803500       0.32380933      -0.02829873
Li      11.41590428       5.57199552       6.97761256      -0.67599572      -0.78321659       0.62302205
Li       3.60825429       3.00061046       8.32135299       0.14303053       0.17013863       0.54667850
Li      11.14264256       0.05733659      11.94191228       0.78490234      -0.12842292       0.29003594
Li      -6.76331701      11.81124106      12.52294104      -0.75529037      -0.36055478       0.69392422
Li       4.60482205       5.47816860       8.01745817       0.49970717      -0.21207826      -0.06039946
Li      12.90173352       1.93085906      10.78309126       0.61107228       0.11120498       0.70418792
Li      10.72066668       1.88519310       9.33683601      -0.40347276      -0.88552412      -0.84872017
Li      -2.68285467       8.77018468       8.85725129       0.39270457      -0.47869554      -0.10085076
Li       8.23117587       3.69225048       6.58613406       0.21538224      -0.73190640      -0.42202959
Li      10.07506919       6.65718053      23.95051576       0.52016579       0.42365821       0.44769159
Li      10.20071935       9.41245849      11.15043200      -0.07360562      -0.81313636      -0.46665056
Li      -2.99232074       9.69475671      11.21875529       0.47782925       0.30229423       0.06014365
Li      -2.32558005       9.80259937      22.66864455      -0.02329754       0.34827722      -0.81152173
Li       0.46437226      12.02671974      11.86458673       0.07407665       0.47032779      -0.53954068
Li       5.35176603       7.53210452      11.59067849      -0.39864472      -0.36427746      -0.08079102
Li       0.50791484       5.92879139       6.89187805      -0.28182801       0.83842573      -0.00967804
Li       1.66137105       9.92668792       8.78715766       0.68315552      -1.04862107      -0.08533638
Li      -3.08350346      12.66824367       7.03119619       0.52001107      -0.69080756       0.49246312
Li      -1.93760162       9.53283769       4.09563792       0.43103687       0.99408686      -0.70837378
Li       5.53471072       4.51927723      11.12364151       0.10553363       0.36821522       0.84448293
Li      -4.74932019      12.40486986      16.89671414      -0.05533567       0.01109033       0.43513590
Li       3.85397855      11.50697267      10.42510573       0.04720120      -0.03404968      -0.43842729
Li      -0.41730296       8.38619805      10.80847118      -0.25018168       0.05870534       0.04076384
Li      -1.94130954       6.05376533       4.87307688       0.12567638      -0.22999184       0.62078004
Li       1.22642989      12.90106014       8.01799146      -0.09334854       0.59099999      -0.06415159
Li       0.87777164       8.02246332      23.62304000       0.11874157      -0.70396018       0.06381934
Li       1.00129592       2.64628353       9.05189858      -0.67188605       0.28964602      -0.46588988
Li       3.81746231      10.11010278      12.83976049       0.21408870      -0.20066427       0.58145870
Li       9.07289189      10.92976111      24.28406680      -0.13719482      -0.09784202      -0.15739832
Li       5.57616684       8.95893438       9.22900665      -0.10171465      -0.28101094       0.58065040
Li      -4.40499708       8.31878901       6.62016931       0.16144653       0.02450847       0.07483328
Li      -1.49120126       8.20237175       6.47675219       0.00795965      -0.43697597      -0.28084998
Li       3.73163493       8.97434320       5.99539149       0.36793617       0.87255291       0.12752963
Li       0.94677590       8.96919382       5.94144506      -0.01936438      -0.14407174      -0.22720887
Li       7.28820913       4.92985057       8.54716969       0.70292586      -0.48642057       0.29153184
Li      -1.62907250       6.15754334       9.00367556      -0.09398664       0.58613101      -0.29235083
Li       4.38643185      11.47714068       6.96978952      -0.33227666       0.27790726       0.23516666
Li       7.24371649       7.74327041       7.37463465       0.24320251       0.27294531      -0.29365608
Li       5.54078577       6.06738578      14.09098874      -0.59116805       0.02534583      -0.06612093
Li       2.05100689       3.80617749       6.49692628       0.35299675      -1.00222622      -0.74685436
Li      10.06942032       7.49783263       8.77035681       0.18990135       0.05450446       0.16464672
Li       2.21927005       3.00584611      20.98469971       0.14636900       0.74152971      -0.51394728
Li      -2.07505964       5.43354232      18.17780717       0.12239843       0.63789491      -0.09867963
Li      -2.87693291      14.09180693       9.39363844      -0.01208946       0.69286220       0.01075121
Li      -0.83414306       2.63739497      23.70857785       0.47488781       0.37487059       0.05559593
Li       5.63011641      -0.09670318      18.45943701       0.80228846      -0.15651708       0.08541015
Li       0.02812616      -0.15286972      12.81549448      -0.31135306      -0.02501236       0.35785377
Li       3.19276984       1.56819352      23.84815635       0.61405998       0.01619303       0.18076843
Li      -1.53680002       0.67523806      16.68680356       0.51838730      -0.83650345       0.24954237
Li       2.33277317       3.97808633      17.16406221       0.17440446       0.14603288       0.01950111
Li       4.10268961      -0.89617334      15.53811365       0.71606768      -0.05151789      -0.15459232
Li       4.90207738       3.66550131      20.92499622       0.05254823      -0.45427283      -0.02817395
Li      -1.76260940       1.22036011      10.04057311      -0.01045234      -0.05944465       0.22152788
Li       6.13366783       0.95763772      22.48970377       0.18082549       0.68199132      -0.19217120
Li      -3.23232660      15.39493871      13.26369137       0.95716824      -0.19267475      -0.73707675
Li      -0.56160972       3.12723748      18.76170738      -0.16963799      -0.00725859      -0.21210059
Li       2.78146811      -0.33268731      18.70930332       0.65219137      -0.13626018       0.33230670
Li       1.60249334       3.86450340      24.06767338       0.13024593      -0.24587531      -0.37118648
Li       9.27795282       2.42558413      12.14901784      -0.05700266       0.13604861      -0.18471810
P        1.23666255       1.13344130      15.22587990      -1.77510686       0.01599423       0.24679257
P       -0.33086207       5.26335450      21.72701018      -0.79703822       0.66882238      -0.07275440
P        4.04695817       2.49160170      11.03432498      -0.55350865      -1.17671812       1.09419545
S       -0.65171658       1.66987522      14.45370317       2.40481727       1.32319533       1.89001541
S       -1.94631411       5.92395162      20.58144257       0.11477560       0.93401102       1.21954245
S        2.11695766       4.93945994       8.48729180       0.11467977      -1.51070192      -0.48450580
S        2.63345870       2.58547108      15.16021236      -0.19167917       0.53982486       0.78370269
S        1.25527001       6.54261770      21.19549424       0.15084165       0.14111003       0.94160162
S        5.83813843       3.50859194       7.27691803      -1.62243864       0.75497459       1.91968876
S       -2.47799038      15.29004243      15.62300521      -0.54904903       0.80284259      -2.13369196
S       -0.26169915       3.18034411      21.49762239       0.11955602       0.20308907      -0.68166919
S        2.18235472       1.32370693       7.35649760      -0.75258362       0.69406590       0.05927867
S        0.98245387       1.06394162      17.24264022       0.43887183      -0.77318815      -0.10705471
S       -0.45261466       5.62523698      23.97254423      -0.14807818       0.61291534       0.64509872
S        4.83492468       0.72654778      10.30032848       0.06751458      -0.39692154      -0.28057602
S        3.74768222       3.85448693      23.14095644      -1.20191254      -1.63985470      -0.78205734
S       -4.83247766      10.79403527      12.23949649      -0.60155400      -0.46857425       0.32786424
S        0.04023432       5.02102507      17.45746524      -0.21559482      -0.04785045       1.64745170
Cl       1.08869602       1.61816430      24.82198687      -0.72290345      -1.64348934      -0.79081141
Cl       3.30901842       4.46452201      19.30299981       1.09165034      -0.25548267      -0.43273792
Cl       0.36394420       5.19223977      12.48372106      -0.21876657      -0.45451267       0.28958673
Li       9.30937918       0.99921375      24.19134780      -0.00251378       0.11293836       0.33251463
Li       5.25006675       5.50246664      18.09970109      -0.42303182      -0.46246207       0.87607633
Li       9.78338683      10.79841141      15.24262016       0.11485379       0.08832326       0.26166917
Li       5.93407401       4.37960065      23.98661007      -0.04923060      -0.08589560      -0.25888036
Li       6.24085917      12.12585833      17.68544480      -0.57080865      -0.66059119      -0.06809864
Li      10.24340756       3.96222165      14.64063114       0.25572283      -0.27472745       0.16247323
Li      12.21765788       3.08018642      24.08397021       0.14917726       0.45475984       0.50648398
Li       7.83573234       3.97213291      16.68085561      -0.25828271       0.05651676      -0.55902785
Li       8.85562868       5.25026842      11.93875082       0.34695978       0.12826978       0.04683443
Li      11.37431300       1.35125718      14.52189636      -0.21597308       0.07712846       0.04580221
Li       9.35577912       5.27217423      19.11681567      -0.40190447      -0.00615635      -0.62573681
Li       4.48816296       1.98520849      14.06792140      -0.76750952       0.58111855      -0.51890317
Li      11.51697864       3.72317215      21.03725347      -0.15566225      -0.44626481      -0.21665317
Li       2.58149409      13.26897786      12.72615286       0.67233873       1.23939778      -0.14452774
Li      12.09845808       3.11491096      18.35684640       0.29592743       0.14569551       0.42481302
Li       9.60594864       1.43420417      17.42865865      -0.08760735      -0.26207937      -1.30584818
Li       9.07984619       3.47754172      22.67460124       0.37566474       0.04600991      -0.87389853
Li      -0.67619132       3.03002661      12.27008970      -0.51320369       0.09852774      -0.77494613
P        7.67314134       0.97542796      15.35687424       0.58794353       1.60802634       0.62165288
P        7.24052377       6.32196991      21.74851843       0.56097396      -0.09903305       0.67258083
P       11.48107990       3.04115687       6.74020576      -0.88422570      -0.09777918      -1.33379890
S        6.20608328       0.08310669      14.19093403       0.58177972      -2.46129945       0.01663982
S        5.51502237       7.22583452      21.29060095       0.06195717      -0.35378811      -1.53891429
S        9.80346108       1.80141917       6.96765396       0.26007959       0.07285233      -0.68482401
S        7.97975081       2.86011356      14.49350436       0.08350912       1.70265780      -0.83715024
S        8.81982335       7.21570082      20.79765594      -0.18386543       0.61165020      -0.49060984
S       -0.20928445       4.17497780       5.26965887       0.45449541      -0.45696037      -1.44652186
S        0.96459319      12.13731931      14.20723233       0.04616355      -1.27796485      -0.54126798
S        7.21538208       4.41748021      21.04427342       0.25311894      -0.18190894       1.53417821
S       12.25325780       0.04252276       9.64671728       0.78246669      -1.46922277      -0.50354157
S        7.13323834       1.38362510      17.30899585      -0.83791385      -0.36331660      -0.69286066
S        7.60025589       6.09975504      23.83027561      -1.04400981      -0.00094638       0.51641214
S       11.49246326       2.57070521      12.54475973       1.43823241       0.31146640       0.80484721
S       11.19240426       4.93589387      22.84524461      -0.18799342      -0.88031636       0.81356335
S        8.93111765       0.11288953      11.40191805       0.26589445      -0.74120622       0.44689913
S        7.43954427       6.07304644      17.28859177       0.18583587       1.21934266      -0.47057176
Cl       7.43431509       2.38796085      23.93180905       1.19252896       0.66536404       1.32185485
Cl       9.84204562       3.01880012      19.14074356       0.12437423       0.13011851       0.57800289
Cl       7.84528471       3.67545435      10.58699155       0.52042601       0.11047505      -0.75491705
Li      -1.59128015      10.52196797      18.34692992      -0.14538571       0.11956483      -0.65661550
Li      -6.02456899      11.04919352      19.62893732       0.42592531      -0.33202673       0.29774219
Li       1.96594790       7.24284809      13.04281739       0.11417314      -0.47468737       0.58990870
Li      -5.11713001       9.88934612      21.93423795       0.04097373       0.29844150      -0.18276697
Li       1.32061560       6.27316445      18.75904601       0.55399902       0.59290971      -0.24303704
Li      -3.93762513      10.32843179      14.20268715      -0.18579886       0.68250794       0.07586769
Li      -2.86074105       6.15546828      22.74926699       0.13786461       0.29467611      -0.43027600
Li      -4.66968446       9.09772378      16.78262372      -0.36986804      -0.04840021      -0.62395068
Li      -2.03901554      13.32964324      14.27411987      -0.07423761      -0.66993103       0.53994522
Li      -1.71111795       3.78264578      16.03934742       0.24970485      -0.39454177      -0.04755969
Li       0.80384160      10.77201366      20.19963249       0.53375160      -0.00555607      -0.13172119
Li      -2.32823836      13.34085845      17.23463355       0.41214090       0.20381327      -0.32674282
Li      -0.84219720       8.09953825      20.72891845       0.46533013       0.35516943      -0.04407510
Li      -1.46089082       6.28672507      13.14932711       0.11689194      -0.24685667       0.28398481
Li      -0.92151040      10.68404845      15.06645015      -0.45445616       0.28051189       0.09220150
Li      -0.37215671       7.17795204      16.45451045       0.24049680       0.26190149       0.02669726
Li      -0.33617834      12.25195557      22.01544398      -0.22384243       0.04173228       0.30065397
Li       5.34880690      11.97143457      14.96324275      -0.03625970      -1.09850379      -0.06983730
P       -3.56896713       7.20135288      15.21455138       0.65949660       0.42359374      -0.90439154
P       -2.82761193      12.13434701      20.29351044      -0.40168218      -0.34569743      -1.45038913
P        3.24713193       8.85284857      10.42374852       0.35895074      -0.13167811       0.90782377
S       -5.20308378       8.07359233      14.44441189       1.39710939       1.36037533       0.87539963
S        3.26002528      -0.06895257      21.78541250       0.99690439       0.80287803      -0.45686566
S       -0.02408652       8.09645262       8.18749816       0.48993530       0.58410798      -0.23358691
S       -1.82468797       8.25004026      14.72386877       0.43789347       1.63779480      -0.72332362
S        4.35109017       1.09278936      20.36888933       0.57262099      -0.26511266       0.79375009
S        2.03673009      11.02500423       6.71532455      -1.60939945      -0.37481452       0.56052516
S       -3.22257316       5.31188829      14.37103209      -2.38446696      -0.73626726       1.79859108
S       -3.15354246      10.05939236      19.93177898      -1.00673236      -0.94939844       0.44105523
S       -0.45794964       7.80434217       4.46421988       2.30431744      -2.24668197      -0.67160580
S       -3.74258898       6.87338622      17.32340851       1.23173266       0.11521168      -0.37677382
S       -2.90351603      12.44442640      22.27775124      -0.57183383      -1.13869228      -1.31492986
S        1.71247578       9.30642240      11.90109515       0.36321999      -0.27053921      -0.78815541
S        0.04310457       9.99901049      22.67238878      -0.63884390      -1.59552157      -0.04359227
S       -2.58175876       7.26840094      10.84550140      -0.95392202       0.44214893      -0.93529126
S       -2.86079863      11.15114426      16.21303461       1.03418573      -0.83142205      -0.07766027
Cl      -3.81173983       8.16266219      23.07101847      -0.83563822       1.52729048       1.09114384
Cl       0.29550242       9.10189132      18.55001464       0.60406890      -0.36895923      -1.22743675
Cl      -1.21039232      10.69986943      10.49142667       1.22781343      -1.29613478      -2.39568054
Li       4.78227376       9.44822156      23.51458729      -0.06416516       0.18543848       0.03292393
Li       1.81729988      13.19447519      16.24903417      -0.63940917      -0.18063505       0.30641656
Li       7.90003128       7.36023566      10.76106693      -0.19921651      -0.38091404      -0.38530702
Li       2.27053851      10.57420362      23.37115661      -0.20355071      -0.54211681      -0.03180839
Li      13.19331325       5.56584956      16.34019174       0.36794877      -0.00105011      -0.34297874
Li      12.08845741       8.53776442      14.44954957       0.46518733       0.04146987       0.33450606
Li       7.73532190       8.51448166      24.18644918      -0.31434206       0.21793541      -0.28366768
Li       2.68013827       9.79239374      18.18894033      -0.67651013       0.49650778      -0.46460235
Li       9.83877768       7.30871910      13.26419204       0.07237057       0.26122680       0.00517975
Li       7.30908208       7.57282950      15.56346406      -0.44767099       0.12418069       0.10803926
Li       5.83314000       9.57713987      21.05924432       0.60540722       0.55811944      -0.32746252
Li       2.39019761      10.69935616      15.18489467       0.38976637      -0.07104025      -0.56250166
Li       8.86055605       9.47491999      21.86377700      -0.32064311       0.65516458       0.56291855
Li       2.53047338       4.42529470      13.83715857       0.95765054      -0.29104290      -0.65959200
Li       5.14232770       9.73408847      16.90893087      -0.13274169      -0.25226731       1.17725183
Li       7.42433601       7.92713419      18.72113865       0.29291652       0.20518154      -0.02374241
Li       6.18002019      12.43115462      22.56253742       0.05183309      -0.49294026      -0.00506264
Li      -5.31070241       8.33133801      12.00983413       0.27244480       0.10023986      -0.35737785
P        3.41632990       7.44007646      15.91897671      -0.59183963      -0.51603966       0.04791742
P        3.65544811      12.10602526      21.20724774      -1.41972605       0.63002339      -1.13956789
P        7.51010545       9.96292512      10.47796825      -0.75500700       0.34316198       1.01911987
S        1.61996600       8.33838545      15.56655359      -0.71747623       0.99047757      -0.02260654
S       10.47755685       1.59256110      21.86832573       0.75835130       0.17570369      -0.29448975
S        5.78744600       9.45409143       6.81659402       0.80217560       0.00439330       1.29788336
S        4.83226238       8.40729150      14.73886552      -0.25419750      -0.74641881      -0.26733302
S       11.86824908       0.78002541      23.23382003      -1.12377757      -0.55775945      -0.40660810
S       -2.82673642      10.26317573       6.47229440       0.64184963      -0.70359435       0.73250782
S        3.63908828       5.38709250      15.76298341      -0.33399507      -0.47951616       0.94999553
S        3.48730916      10.09987963      20.80099512      -0.19841746      -0.31058697       0.06131883
S        8.98536714       5.97167602       7.34569135      -1.46312547      -0.53646793       0.24560187
S        3.89374908       7.56977744      17.92198289       0.13654211      -0.89459852      -0.61942195
S        3.69033123      12.54566589      23.17395904      -0.33154114       1.51891860       0.10793967
S        6.09897670       6.67846791       9.53082854       0.73354646      -0.22051601      -1.50349487
S        6.94421719      10.42375767      23.19041665       0.23093137       0.25848838       0.07321432
S        3.93357700       5.66679456      12.41916090       0.73098549      -0.63401291       0.96802354
S        3.67374405      11.77594987      16.77470729      -0.53227171       1.13610552       1.18406823
Cl       2.96058570       8.25978832      24.24091002       0.02204420      -2.03592361       1.41048369
Cl       6.86273333      10.27393258      18.89355986      -2.23533956      -0.10078787       0.45784080
Cl       4.86904936      12.43146140      12.71270497       0.04317894      -0.68992441       1.50982744
S        9.00673697       9.83891741       9.14501515       0.30339030       2.45342324      -1.08548721
S        0.49622321       1.04798705      10.80837096      -0.74019474      -0.50192860      -0.48213854
S        1.93214426      13.16622938      10.54507385       0.24307755       2.11409638      -0.69574232
S       -1.95839074       1.38921310       7.60191970       0.40319667      -0.26867541       1.60455978
S       -8.13482739      11.97564230      10.58104943       0.36067702      -0.95968707       1.12528499
S       -4.78609198      12.72130359       8.88210820       0.93212086       0.79315441      -1.46208852
S       12.38075492       3.67679376       8.56148514      -0.55575568      -0.11458705       1.29082632
S       -0.95349746      13.39687749       7.73347651      -0.28987168       2.14887919       1.89588942
S        5.20387948      12.77819275       8.92443803      -1.41440417       0.04316397      -0.14200932
S       -5.54005841       3.67748986       9.15419480       0.12370572      -1.46703611      -0.51868447
S       -2.98099327       6.46291188       6.99067684      -0.31826686      -1.66521461      -1.13121107
Cl      -2.50490925       2.43918158      17.67442401       1.44020588       0.97265405       0.36890676
S       -2.12532762      14.10188815      11.78116051       0.02359906      -0.60222511       1.54551948
S       -2.26344097       4.83833602      24.46407126      -0.75025819      -1.15022392      -0.90343622
S        4.29758267      -1.69269137      17.56377612      -1.55017024      -0.62910916      -0.15659946
S        4.47352125      -0.47651750      23.47462819       0.70661681      -0.57476550       0.06716904
S       -3.03173996       2.59672223      11.37924061       1.05658145       1.24735796      -1.43800123
S        2.12580036      -0.36838785      14.07628485      -1.01494051       0.22425657      -0.81859392
S        5.39643994      12.94184077      20.34352474      -1.45968635       0.88141137       1.29774321
S        7.83408003      12.16430877      15.74912366      -0.46253941       1.02568468      -1.37328258
S       11.48714167       1.10035164      25.16571295      -1.61667143       0.33979102      -0.36530572
S       10.41449935       6.52307174      10.93811814       0.98706553      -0.01877462      -0.68667451
S       13.43628857       5.70319833      14.04862669      -1.81586801       2.10309100      -0.27505707
S       12.79137254       1.35514512      16.80690255      -0.96999870      -0.05766145      -0.13927510
S       11.95306613       3.14356383      15.99979374      -0.02494295       1.63305749       1.01616344
S       11.84697056       6.51765698      19.13687294      -0.71099744       1.94554247      -0.10013930
S       13.31314413       5.09686058      18.87342431       1.60521452      -0.64168833       0.04705730
S        9.25753647      -0.32644692      15.39559563      -0.40945637       0.38212646      -0.50661498
Cl      -6.30592815      10.67723632      17.29173047       0.35369188       0.00462266       0.60608109
S       -4.34120563      14.48675995      15.03136755      -1.01800605      -0.05853519       0.72760472
S       -4.31550106      13.21214074      19.40269343       0.64110887       0.52084670      -1.07672917
S       -6.77840052      11.31907967      21.56182014      -0.18098689      -1.50647025      -0.72273615
S       -1.06574791      12.68107511      19.40251372      -0.75078278       1.16279675      -0.77790898
S        1.93659725      13.03604151      20.33106716      -0.75201944      -1.00156678       0.47501271
S       -6.62377672       7.45624486      10.01672015       1.48091759       1.38522053       0.83145648
S       11.35761861       6.06416555      14.75576971      -0.14897102       1.39337974      -0.68620662
S        7.48230103       6.85083859      13.10902155      -0.12708323      -0.60601660       0.87757465
S       10.35538688       9.53657637      13.45953235       0.22220936       0.34422548      -0.25100213
S        7.08174930      10.34322291      15.20329679       0.27741441      -0.68753297       0.90583878
S       10.87443669       9.21647380      23.20296769       1.43805909       1.96805027      -0.14409267
S        9.92120854       8.82099843      25.01865200       0.10260933       0.10197863      -0.50740127
Li      -5.92142534      11.19746293      10.13482382      -0.27012822      -0.67908115      -0.44030651
Li      -0.15658484      12.24858110       5.96848317       0.05217855      -0.00086847      -0.69075728
Li      -3.72523771      12.59655015      11.40745078      -0.19063076       0.15197237      -0.17700640
Li      13.51312938       3.24217329      14.03078397       0.01080431       0.43257656       0.01295623
Li       3.85634758      14.24761618      10.02930927      -1.10804024       0.10922910       0.42199461
Li       7.95358360       9.30749258      13.23755976      -0.06152322       0.44716219       0.56795933
Li      -4.41398498       1.59461029       8.46828434      -0.09840661      -0.37445986       0.31499108
Li      -4.78170246       5.02807196       7.15812748       0.31003589       0.34269965      -0.08780926
Li      -0.09009717       0.24479622       8.35515794       0.13261710       0.75351112       0.31051769
Li      -7.17180290      13.39261350       8.89183723       0.11182875      -0.07359354       0.83207866
Li      10.03951629      -0.85078142       9.50999441      -0.37761997       0.45130340       0.06460006
Li     -10.18497861      12.47852055      11.12023211      -0.33633407       0.65526474       0.35986665
Li      -8.24299768       9.66493689       9.16388386      -0.20318756      -0.17607632      -0.12562485
Li      11.94584753       5.05823067      12.10924318       0.43257376       0.19779671      -0.25015666
Li      -3.65301739       5.26722539      11.81459575       0.24717188      -0.11395742       0.40035324
P       -3.53554998       3.82498785       9.67141167       0.84050491      -1.22353784       0.13611584
Li      -4.43951655       6.56931198       9.41835741      -0.01837143      -0.10362126      -0.12183351
P       -5.71163505       8.90207065       8.94776519      -0.68684137      -0.18764308      -0.43223310
